<?xml version="1.0" encoding="UTF-8"?>

<!-- generated on 08/02/20 18:47:22 by Eclipse SUMO netedit Version 1.3.1
<configuration xmlns:xsi="http://www.w3.org/2001/XMLSchema-instance" xsi:noNamespaceSchemaLocation="http://sumo.dlr.de/xsd/netconvertConfiguration.xsd">

    <input>
        <sumo-net-file value="X:\CODE\PycharmProjects\PedestrianCollision\sumomodel\cross0\new_cross3.net.xml"/>
    </input>

    <output>
        <output-file value="X:\CODE\PycharmProjects\PedestrianCollision\sumomodel\cross0\new_cross3.net.xml"/>
    </output>

    <processing>
        <geometry.max-grade.fix value="false"/>
        <offset.disable-normalization value="true"/>
        <opposites.guess.fix-lengths value="true"/>
        <lefthand value="false"/>
    </processing>

    <junctions>
        <no-internal-links value="false"/>
        <no-turnarounds value="true"/>
        <junctions.corner-detail value="5"/>
        <junctions.limit-turn-speed value="5.5"/>
        <rectangular-lane-cut value="false"/>
    </junctions>

    <pedestrian>
        <walkingareas value="false"/>
    </pedestrian>

</configuration>
-->

<net version="1.3" junctionCornerDetail="5" limitTurnSpeed="5.50" xmlns:xsi="http://www.w3.org/2001/XMLSchema-instance" xsi:noNamespaceSchemaLocation="http://sumo.dlr.de/xsd/net_file.xsd">

    <location netOffset="0.00,0.00" convBoundary="-100.04,-10.00,100.00,10.00" origBoundary="-10000000000.00,-10000000000.00,10000000000.00,10000000000.00" projParameter="!"/>

    <edge id=":gneJ0_0" function="internal">
        <lane id=":gneJ0_0_0" index="0" disallow="pedestrian" speed="60.00" length="7.00" width="3.75" shape="3.50,1.88 -3.50,1.88"/>
    </edge>
    <edge id=":gneJ0_1" function="internal">
        <lane id=":gneJ0_1_0" index="0" disallow="pedestrian" speed="60.00" length="7.00" width="3.75" shape="-3.50,-1.88 3.50,-1.88"/>
    </edge>
    <edge id=":gneJ0_c0" function="crossing" crossingEdges="gneE2 -gneE2">
        <lane id=":gneJ0_c0_0" index="0" allow="pedestrian" speed="1.00" length="7.50" width="2.00" shape="2.50,-3.75 2.50,3.75"/>
    </edge>
    <edge id=":gneJ0_c1" function="crossing" crossingEdges="gneE3 -gneE3">
        <lane id=":gneJ0_c1_0" index="0" allow="pedestrian" speed="1.00" length="7.50" width="2.00" shape="-2.50,3.75 -2.50,-3.75"/>
    </edge>
    <edge id=":gneJ0_w0" function="walkingarea">
        <lane id=":gneJ0_w0_0" index="0" allow="pedestrian" speed="1.00" length="3.14" width="2.00" shape="-1.50,3.75 -3.50,3.75 -2.00,5.25 0.00,5.25 0.00,5.25 2.00,5.25 3.50,3.75 1.50,3.75"/>
    </edge>
    <edge id=":gneJ0_w1" function="walkingarea">
        <lane id=":gneJ0_w1_0" index="0" allow="pedestrian" speed="1.00" length="3.14" width="2.00" shape="1.50,-3.75 3.50,-3.75 2.00,-5.25 0.00,-5.25 0.00,-5.25 -2.00,-5.25 -3.50,-3.75 -1.50,-3.75"/>
    </edge>
    <edge id=":gneJ1_w0" function="walkingarea">
        <lane id=":gneJ1_w0_0" index="0" allow="pedestrian" speed="1.00" length="2.00" width="2.00" shape="0.00,10.00 -2.00,10.00 2.00,10.00 0.00,10.00"/>
    </edge>
    <edge id=":gneJ2_w0" function="walkingarea">
        <lane id=":gneJ2_w0_0" index="0" allow="pedestrian" speed="1.00" length="2.00" width="2.00" shape="0.00,-10.00 2.00,-10.00 -2.00,-10.00 0.00,-10.00"/>
    </edge>

    <edge id="-gneE0" from="gneJ1" to="gneJ0" priority="-1">
        <lane id="-gneE0_0" index="0" allow="pedestrian" speed="60.00" length="4.75" width="2.00" shape="-1.00,10.00 -1.00,5.25"/>
    </edge>
    <edge id="-gneE1" from="gneJ2" to="gneJ0" priority="-1">
        <lane id="-gneE1_0" index="0" allow="pedestrian" speed="60.00" length="4.75" width="2.00" shape="1.00,-10.00 1.00,-5.25"/>
    </edge>
    <edge id="-gneE2" from="gneJ3" to="gneJ0" priority="-1">
        <lane id="-gneE2_0" index="0" disallow="pedestrian" speed="60.00" length="96.50" width="3.75" shape="100.00,1.88 3.50,1.88"/>
    </edge>
    <edge id="-gneE3" from="gneJ4" to="gneJ0" priority="-1" spreadType="center" shape="-100.04,-1.87 0.00,-1.88">
        <lane id="-gneE3_0" index="0" disallow="pedestrian" speed="60.00" length="96.54" width="3.75" shape="-100.04,-1.87 -3.50,-1.88"/>
    </edge>
    <edge id="gneE0" from="gneJ0" to="gneJ1" priority="-1">
        <lane id="gneE0_0" index="0" allow="pedestrian" speed="60.00" length="4.75" width="2.00" shape="1.00,5.25 1.00,10.00"/>
    </edge>
    <edge id="gneE1" from="gneJ0" to="gneJ2" priority="-1">
        <lane id="gneE1_0" index="0" allow="pedestrian" speed="60.00" length="4.75" width="2.00" shape="-1.00,-5.25 -1.00,-10.00"/>
    </edge>
    <edge id="gneE2" from="gneJ0" to="gneJ3" priority="-1">
        <lane id="gneE2_0" index="0" disallow="pedestrian" speed="60.00" length="96.50" width="3.75" shape="3.50,-1.88 100.00,-1.88"/>
    </edge>
    <edge id="gneE3" from="gneJ0" to="gneJ4" priority="-1">
        <lane id="gneE3_0" index="0" disallow="pedestrian" speed="60.00" length="96.50" width="3.75" shape="-3.50,1.88 -100.00,1.88"/>
    </edge>

    <junction id="gneJ0" type="priority_stop" x="0.00" y="0.00" incLanes="-gneE0_0 -gneE2_0 -gneE1_0 -gneE3_0 :gneJ0_w1_0 :gneJ0_w0_0" intLanes=":gneJ0_0_0 :gneJ0_1_0 :gneJ0_c0_0 :gneJ0_c1_0" shape="-2.00,5.25 2.00,5.25 2.17,4.42 2.37,4.13 2.67,3.92 3.04,3.79 3.50,3.75 3.50,-3.75 2.67,-3.92 2.37,-4.13 2.17,-4.42 2.04,-4.80 2.00,-5.25 -2.00,-5.25 -2.17,-4.42 -2.37,-4.13 -2.67,-3.92 -3.04,-3.80 -3.50,-3.75 -3.50,3.75 -2.67,3.92 -2.38,4.13 -2.17,4.42 -2.04,4.79" customShape="1" rightOfWay="edgePriority">
        <request index="0" response="1100" foes="1100" cont="0"/>
        <request index="1" response="1100" foes="1100" cont="0"/>
        <request index="2" response="0000" foes="0011" cont="0"/>
        <request index="3" response="0000" foes="0011" cont="0"/>
    </junction>
    <junction id="gneJ1" type="dead_end" x="0.00" y="10.00" incLanes="gneE0_0" intLanes="" shape="0.00,10.00 2.00,10.00 0.00,10.00"/>
    <junction id="gneJ2" type="dead_end" x="0.00" y="-10.00" incLanes="gneE1_0" intLanes="" shape="0.00,-10.00 -2.00,-10.00 0.00,-10.00"/>
    <junction id="gneJ3" type="dead_end" x="100.00" y="0.00" incLanes="gneE2_0" intLanes="" shape="100.00,0.00 100.00,-3.75 100.00,0.00"/>
    <junction id="gneJ4" type="dead_end" x="-100.00" y="0.00" incLanes="gneE3_0" intLanes="" shape="-100.00,0.00 -100.00,3.75 -100.00,0.00" customShape="1"/>

    <connection from="-gneE2" to="gneE3" fromLane="0" toLane="0" via=":gneJ0_0_0" dir="s" state="s"/>
    <connection from="-gneE3" to="gneE2" fromLane="0" toLane="0" via=":gneJ0_1_0" dir="s" state="s"/>

    <connection from=":gneJ0_0" to="gneE3" fromLane="0" toLane="0" dir="s" state="M"/>
    <connection from=":gneJ0_1" to="gneE2" fromLane="0" toLane="0" dir="s" state="M"/>

    <connection from=":gneJ0_c0" to=":gneJ0_w0" fromLane="0" toLane="0" dir="s" state="M"/>
    <connection from=":gneJ0_c1" to=":gneJ0_w1" fromLane="0" toLane="0" dir="s" state="M"/>
    <connection from=":gneJ0_w0" to=":gneJ0_c1" fromLane="0" toLane="0" dir="s" state="M"/>
    <connection from=":gneJ0_w0" to="gneE0" fromLane="0" toLane="0" dir="s" state="M"/>
    <connection from="-gneE0" to=":gneJ0_w0" fromLane="0" toLane="0" dir="s" state="M"/>
    <connection from=":gneJ0_w1" to=":gneJ0_c0" fromLane="0" toLane="0" dir="s" state="M"/>
    <connection from=":gneJ0_w1" to="gneE1" fromLane="0" toLane="0" dir="s" state="M"/>
    <connection from="-gneE1" to=":gneJ0_w1" fromLane="0" toLane="0" dir="s" state="M"/>
    <connection from=":gneJ1_w0" to="-gneE0" fromLane="0" toLane="0" dir="s" state="M"/>
    <connection from="gneE0" to=":gneJ1_w0" fromLane="0" toLane="0" dir="s" state="M"/>
    <connection from=":gneJ2_w0" to="-gneE1" fromLane="0" toLane="0" dir="s" state="M"/>
    <connection from="gneE1" to=":gneJ2_w0" fromLane="0" toLane="0" dir="s" state="M"/>
</net>
