<?xml version="1.0" encoding="UTF-8"?>

<!-- generated on 06/11/20 15:14:38 by Eclipse SUMO netedit Version 1.3.1
<configuration xmlns:xsi="http://www.w3.org/2001/XMLSchema-instance" xsi:noNamespaceSchemaLocation="http://sumo.dlr.de/xsd/netconvertConfiguration.xsd">

    <input>
        <sumo-net-file value="X:\CODE\PycharmProjects\PedestrianCollision\sumomodel\cross3.net.xml"/>
    </input>

    <output>
        <output-file value="X:\CODE\PycharmProjects\PedestrianCollision\sumomodel\cross3.net.xml"/>
    </output>

    <processing>
        <geometry.max-grade.fix value="false"/>
        <offset.disable-normalization value="true"/>
        <opposites.guess.fix-lengths value="true"/>
        <lefthand value="false"/>
    </processing>

    <junctions>
        <no-internal-links value="false"/>
        <no-turnarounds value="true"/>
        <junctions.corner-detail value="5"/>
        <junctions.limit-turn-speed value="5.5"/>
        <rectangular-lane-cut value="false"/>
    </junctions>

    <pedestrian>
        <walkingareas value="false"/>
    </pedestrian>

</configuration>
-->

<net version="1.3" junctionCornerDetail="5" limitTurnSpeed="5.50" xmlns:xsi="http://www.w3.org/2001/XMLSchema-instance" xsi:noNamespaceSchemaLocation="http://sumo.dlr.de/xsd/net_file.xsd">

    <location netOffset="0.00,0.00" convBoundary="-100.00,-100.00,200.00,100.00" origBoundary="-10000000000.00,-10000000000.00,10000000000.00,10000000000.00" projParameter="!"/>

    <edge id=":gneJ10_0" function="internal">
        <lane id=":gneJ10_0_0" index="0" disallow="pedestrian" speed="5.91" length="16.00" shape="-100.00,8.00 -100.00,-8.00"/>
    </edge>
    <edge id=":gneJ10_1" function="internal">
        <lane id=":gneJ10_1_0" index="0" disallow="pedestrian" speed="4.77" length="9.60" shape="-100.00,4.80 -100.00,-4.80"/>
    </edge>
    <edge id=":gneJ10_2" function="internal">
        <lane id=":gneJ10_2_0" index="0" disallow="pedestrian" speed="3.24" length="3.20" shape="-100.00,1.60 -100.00,-1.60"/>
    </edge>
    <edge id=":gneJ10_w0" function="walkingarea">
        <lane id=":gneJ10_w0_0" index="0" allow="pedestrian" speed="1.00" length="23.20" width="2.00" shape="-100.00,-10.60 -100.00,-12.60 -100.00,12.60 -100.00,10.60"/>
    </edge>
    <edge id=":gneJ11_w0" function="walkingarea">
        <lane id=":gneJ11_w0_0" index="0" allow="pedestrian" speed="1.00" length="23.20" width="2.00" shape="10.60,-100.00 12.60,-100.00 -12.60,-100.00 -10.60,-100.00"/>
    </edge>
    <edge id=":gneJ12_w0" function="walkingarea">
        <lane id=":gneJ12_w0_0" index="0" allow="pedestrian" speed="1.00" length="23.20" width="2.00" shape="200.00,10.60 200.00,12.60 200.00,-12.60 200.00,-10.60"/>
    </edge>
    <edge id=":gneJ6_w0" function="walkingarea">
        <lane id=":gneJ6_w0_0" index="0" allow="pedestrian" speed="1.00" length="23.20" width="2.00" shape="-10.60,100.00 -12.60,100.00 12.60,100.00 10.60,100.00"/>
    </edge>
    <edge id=":gneJ7_0" function="internal">
        <lane id=":gneJ7_0_0" index="0" disallow="pedestrian" speed="6.76" length="5.59" shape="-8.00,14.10 -8.38,11.43 -9.52,9.52 -10.10,9.18"/>
    </edge>
    <edge id=":gneJ7_1" function="internal">
        <lane id=":gneJ7_1_0" index="0" disallow="pedestrian" speed="6.76" length="9.84" shape="-8.00,14.10 -8.38,11.43 -9.52,9.52 -11.43,8.38 -14.10,8.00"/>
    </edge>
    <edge id=":gneJ7_2" function="internal">
        <lane id=":gneJ7_2_0" index="0" disallow="pedestrian" speed="13.89" length="28.20" shape="-8.00,14.10 -8.00,-14.10"/>
        <lane id=":gneJ7_2_1" index="1" disallow="pedestrian" speed="13.89" length="28.20" shape="-4.80,14.10 -4.80,-14.10"/>
        <lane id=":gneJ7_2_2" index="2" disallow="pedestrian" speed="13.89" length="28.20" shape="-1.60,14.10 -1.60,-14.10"/>
    </edge>
    <edge id=":gneJ7_5" function="internal">
        <lane id=":gneJ7_5_0" index="0" disallow="pedestrian" speed="10.53" length="8.14" shape="-1.60,14.10 -0.62,7.23 -0.00,6.20"/>
    </edge>
    <edge id=":gneJ7_24" function="internal">
        <lane id=":gneJ7_24_0" index="0" disallow="pedestrian" speed="6.76" length="4.25" shape="-10.10,9.18 -11.43,8.38 -14.10,8.00"/>
    </edge>
    <edge id=":gneJ7_25" function="internal">
        <lane id=":gneJ7_25_0" index="0" disallow="pedestrian" speed="10.53" length="17.18" shape="-0.00,6.20 2.33,2.33 7.23,-0.62 14.10,-1.60"/>
    </edge>
    <edge id=":gneJ7_6" function="internal">
        <lane id=":gneJ7_6_0" index="0" disallow="pedestrian" speed="6.76" length="5.59" shape="14.10,8.00 11.43,8.38 9.53,9.52 9.18,10.10"/>
    </edge>
    <edge id=":gneJ7_7" function="internal">
        <lane id=":gneJ7_7_0" index="0" disallow="pedestrian" speed="13.89" length="28.44" shape="14.10,8.00 5.70,7.50 0.00,6.40 -5.70,5.30 -14.10,4.80"/>
    </edge>
    <edge id=":gneJ7_8" function="internal">
        <lane id=":gneJ7_8_0" index="0" disallow="pedestrian" speed="13.89" length="28.20" shape="14.10,8.00 -14.10,8.00"/>
        <lane id=":gneJ7_8_1" index="1" disallow="pedestrian" speed="13.89" length="28.20" shape="14.10,4.80 -14.10,4.80"/>
        <lane id=":gneJ7_8_2" index="2" disallow="pedestrian" speed="13.89" length="28.20" shape="14.10,1.60 -14.10,1.60"/>
    </edge>
    <edge id=":gneJ7_11" function="internal">
        <lane id=":gneJ7_11_0" index="0" disallow="pedestrian" speed="10.53" length="8.14" shape="14.10,1.60 7.23,0.62 6.20,-0.00"/>
    </edge>
    <edge id=":gneJ7_26" function="internal">
        <lane id=":gneJ7_26_0" index="0" disallow="pedestrian" speed="6.76" length="4.25" shape="9.18,10.10 8.38,11.43 8.00,14.10"/>
    </edge>
    <edge id=":gneJ7_27" function="internal">
        <lane id=":gneJ7_27_0" index="0" disallow="pedestrian" speed="10.53" length="17.18" shape="6.20,-0.00 2.33,-2.32 -0.62,-7.23 -1.60,-14.10"/>
    </edge>
    <edge id=":gneJ7_12" function="internal">
        <lane id=":gneJ7_12_0" index="0" disallow="pedestrian" speed="6.76" length="5.59" shape="8.00,-14.10 8.38,-11.43 9.53,-9.52 10.10,-9.18"/>
    </edge>
    <edge id=":gneJ7_13" function="internal">
        <lane id=":gneJ7_13_0" index="0" disallow="pedestrian" speed="13.89" length="28.20" shape="8.00,-14.10 8.00,14.10"/>
        <lane id=":gneJ7_13_1" index="1" disallow="pedestrian" speed="13.89" length="28.20" shape="4.80,-14.10 4.80,14.10"/>
        <lane id=":gneJ7_13_2" index="2" disallow="pedestrian" speed="13.89" length="28.20" shape="1.60,-14.10 1.60,14.10"/>
    </edge>
    <edge id=":gneJ7_16" function="internal">
        <lane id=":gneJ7_16_0" index="0" disallow="pedestrian" speed="10.53" length="8.14" shape="1.60,-14.10 0.62,-7.23 0.00,-6.20"/>
    </edge>
    <edge id=":gneJ7_17" function="internal">
        <lane id=":gneJ7_17_0" index="0" disallow="pedestrian" speed="11.04" length="9.71" shape="1.60,-14.10 0.62,-5.83 0.00,-4.59"/>
    </edge>
    <edge id=":gneJ7_28" function="internal">
        <lane id=":gneJ7_28_0" index="0" disallow="pedestrian" speed="6.76" length="4.25" shape="10.10,-9.18 11.43,-8.38 14.10,-8.00"/>
    </edge>
    <edge id=":gneJ7_29" function="internal">
        <lane id=":gneJ7_29_0" index="0" disallow="pedestrian" speed="10.53" length="17.18" shape="0.00,-6.20 -2.32,-2.33 -7.23,0.62 -14.10,1.60"/>
    </edge>
    <edge id=":gneJ7_30" function="internal">
        <lane id=":gneJ7_30_0" index="0" disallow="pedestrian" speed="11.04" length="18.23" shape="0.00,-4.59 -2.32,0.08 -7.23,3.62 -14.10,4.80"/>
    </edge>
    <edge id=":gneJ7_18" function="internal">
        <lane id=":gneJ7_18_0" index="0" disallow="pedestrian" speed="6.76" length="5.59" shape="-14.10,-8.00 -11.43,-8.38 -9.53,-9.52 -9.18,-10.10"/>
    </edge>
    <edge id=":gneJ7_19" function="internal">
        <lane id=":gneJ7_19_0" index="0" disallow="pedestrian" speed="13.89" length="28.20" shape="-14.10,-8.00 14.10,-8.00"/>
        <lane id=":gneJ7_19_1" index="1" disallow="pedestrian" speed="13.89" length="28.20" shape="-14.10,-4.80 14.10,-4.80"/>
        <lane id=":gneJ7_19_2" index="2" disallow="pedestrian" speed="13.89" length="28.20" shape="-14.10,-1.60 14.10,-1.60"/>
    </edge>
    <edge id=":gneJ7_22" function="internal">
        <lane id=":gneJ7_22_0" index="0" disallow="pedestrian" speed="10.53" length="8.14" shape="-14.10,-1.60 -7.23,-0.62 -6.20,-0.00"/>
    </edge>
    <edge id=":gneJ7_23" function="internal">
        <lane id=":gneJ7_23_0" index="0" disallow="pedestrian" speed="3.24" length="1.60" shape="-14.10,-1.60 -14.10,0.00"/>
    </edge>
    <edge id=":gneJ7_31" function="internal">
        <lane id=":gneJ7_31_0" index="0" disallow="pedestrian" speed="6.76" length="4.25" shape="-9.18,-10.10 -8.38,-11.43 -8.00,-14.10"/>
    </edge>
    <edge id=":gneJ7_32" function="internal">
        <lane id=":gneJ7_32_0" index="0" disallow="pedestrian" speed="10.53" length="17.18" shape="-6.20,-0.00 -2.33,2.32 0.62,7.23 1.60,14.10"/>
    </edge>
    <edge id=":gneJ7_33" function="internal">
        <lane id=":gneJ7_33_0" index="0" disallow="pedestrian" speed="3.24" length="1.60" shape="-14.10,0.00 -14.10,1.60"/>
    </edge>
    <edge id=":gneJ7_c0" function="crossing" crossingEdges="-gneE3 gneE3">
        <lane id=":gneJ7_c0_0" index="0" allow="pedestrian" speed="1.00" length="19.20" width="4.00" shape="9.60,12.10 -9.60,12.10"/>
    </edge>
    <edge id=":gneJ7_c1" function="crossing" crossingEdges="gneE7 -gneE7">
        <lane id=":gneJ7_c1_0" index="0" allow="pedestrian" speed="1.00" length="19.20" width="4.00" shape="12.10,-9.60 12.10,9.60"/>
    </edge>
    <edge id=":gneJ7_c2" function="crossing" crossingEdges="-gneE6 gneE6">
        <lane id=":gneJ7_c2_0" index="0" allow="pedestrian" speed="1.00" length="19.20" width="4.00" shape="-9.60,-12.10 9.60,-12.10"/>
    </edge>
    <edge id=":gneJ7_c3" function="crossing" crossingEdges="-gneE5 --gneE5">
        <lane id=":gneJ7_c3_0" index="0" allow="pedestrian" speed="1.00" length="19.20" width="4.00" shape="-12.10,9.60 -12.10,-9.60"/>
    </edge>
    <edge id=":gneJ7_w0" function="walkingarea">
        <lane id=":gneJ7_w0_0" index="0" allow="pedestrian" speed="1.00" length="3.63" width="4.00" shape="-14.10,10.60 -14.10,12.60 -12.60,14.10 -10.60,14.10 -9.60,14.10 -9.72,13.03 -10.10,12.16 -10.72,11.47 -11.60,10.99 -12.72,10.70"/>
    </edge>
    <edge id=":gneJ7_w1" function="walkingarea">
        <lane id=":gneJ7_w1_0" index="0" allow="pedestrian" speed="1.00" length="3.63" width="4.00" shape="9.60,14.10 10.60,14.10 12.60,14.10 14.10,12.60 14.10,10.60 14.10,9.60 12.73,9.72 11.60,10.10 10.73,10.72 10.10,11.60 9.72,12.72"/>
    </edge>
    <edge id=":gneJ7_w2" function="walkingarea">
        <lane id=":gneJ7_w2_0" index="0" allow="pedestrian" speed="1.00" length="3.63" width="4.00" shape="14.10,-9.60 14.10,-10.60 14.10,-12.60 12.60,-14.10 10.60,-14.10 9.60,-14.10 9.73,-12.72 10.10,-11.60 10.73,-10.72 11.60,-10.10 12.73,-9.72"/>
    </edge>
    <edge id=":gneJ7_w3" function="walkingarea">
        <lane id=":gneJ7_w3_0" index="0" allow="pedestrian" speed="1.00" length="3.63" width="4.00" shape="-9.60,-14.10 -10.60,-14.10 -12.60,-14.10 -14.10,-12.60 -14.10,-10.60 -14.10,-9.60 -12.72,-9.72 -11.60,-10.10 -10.72,-10.72 -10.10,-11.60 -9.72,-12.72"/>
    </edge>
    <edge id=":gneJ7_w4" function="walkingarea">
        <lane id=":gneJ7_w4_0" index="0" allow="pedestrian" speed="1.00" length="2.83" width="4.00" shape="-10.10,9.60 -14.10,9.60 -14.10,10.60 -14.10,12.60"/>
    </edge>

    <edge id="--gneE5" from="gneJ10" to="gneJ7" priority="-1">
        <lane id="--gneE5_0" index="0" allow="pedestrian" speed="13.89" length="85.90" width="2.00" shape="-100.00,-11.60 -14.10,-11.60"/>
        <lane id="--gneE5_1" index="1" disallow="all" speed="13.89" length="85.90" width="1.00" shape="-100.00,-10.10 -14.10,-10.10"/>
        <lane id="--gneE5_2" index="2" disallow="pedestrian" speed="13.89" length="85.90" shape="-100.00,-8.00 -14.10,-8.00"/>
        <lane id="--gneE5_3" index="3" disallow="pedestrian" speed="13.89" length="85.90" shape="-100.00,-4.80 -14.10,-4.80"/>
        <lane id="--gneE5_4" index="4" disallow="pedestrian" speed="13.89" length="85.90" shape="-100.00,-1.60 -14.10,-1.60"/>
    </edge>
    <edge id="-gneE3" from="gneJ7" to="gneJ6" priority="-1">
        <lane id="-gneE3_0" index="0" allow="pedestrian" speed="13.89" length="85.90" width="2.00" shape="11.60,14.10 11.60,100.00"/>
        <lane id="-gneE3_1" index="1" disallow="all" speed="13.89" length="85.90" width="1.00" shape="10.10,14.10 10.10,100.00"/>
        <lane id="-gneE3_2" index="2" disallow="pedestrian" speed="13.89" length="85.90" shape="8.00,14.10 8.00,100.00"/>
        <lane id="-gneE3_3" index="3" disallow="pedestrian" speed="13.89" length="85.90" shape="4.80,14.10 4.80,100.00"/>
        <lane id="-gneE3_4" index="4" disallow="pedestrian" speed="13.89" length="85.90" shape="1.60,14.10 1.60,100.00"/>
    </edge>
    <edge id="-gneE5" from="gneJ7" to="gneJ10" priority="-1">
        <lane id="-gneE5_0" index="0" allow="pedestrian" speed="13.89" length="85.90" width="2.00" shape="-14.10,11.60 -100.00,11.60"/>
        <lane id="-gneE5_1" index="1" disallow="all" speed="13.89" length="85.90" width="1.00" shape="-14.10,10.10 -100.00,10.10"/>
        <lane id="-gneE5_2" index="2" disallow="pedestrian" speed="13.89" length="85.90" shape="-14.10,8.00 -100.00,8.00"/>
        <lane id="-gneE5_3" index="3" disallow="pedestrian" speed="13.89" length="85.90" shape="-14.10,4.80 -100.00,4.80"/>
        <lane id="-gneE5_4" index="4" disallow="pedestrian" speed="13.89" length="85.90" shape="-14.10,1.60 -100.00,1.60"/>
    </edge>
    <edge id="-gneE6" from="gneJ7" to="gneJ11" priority="-1">
        <lane id="-gneE6_0" index="0" allow="pedestrian" speed="13.89" length="85.90" width="2.00" shape="-11.60,-14.10 -11.60,-100.00"/>
        <lane id="-gneE6_1" index="1" disallow="all" speed="13.89" length="85.90" width="1.00" shape="-10.10,-14.10 -10.10,-100.00"/>
        <lane id="-gneE6_2" index="2" disallow="pedestrian" speed="13.89" length="85.90" shape="-8.00,-14.10 -8.00,-100.00"/>
        <lane id="-gneE6_3" index="3" disallow="pedestrian" speed="13.89" length="85.90" shape="-4.80,-14.10 -4.80,-100.00"/>
        <lane id="-gneE6_4" index="4" disallow="pedestrian" speed="13.89" length="85.90" shape="-1.60,-14.10 -1.60,-100.00"/>
    </edge>
    <edge id="-gneE7" from="gneJ12" to="gneJ7" priority="-1">
        <lane id="-gneE7_0" index="0" allow="pedestrian" speed="13.89" length="185.90" width="2.00" shape="200.00,11.60 14.10,11.60"/>
        <lane id="-gneE7_1" index="1" disallow="all" speed="13.89" length="185.90" width="1.00" shape="200.00,10.10 14.10,10.10"/>
        <lane id="-gneE7_2" index="2" disallow="pedestrian" speed="13.89" length="185.90" shape="200.00,8.00 14.10,8.00"/>
        <lane id="-gneE7_3" index="3" disallow="pedestrian" speed="13.89" length="185.90" shape="200.00,4.80 14.10,4.80"/>
        <lane id="-gneE7_4" index="4" disallow="pedestrian" speed="13.89" length="185.90" shape="200.00,1.60 14.10,1.60"/>
    </edge>
    <edge id="gneE3" from="gneJ6" to="gneJ7" priority="-1">
        <lane id="gneE3_0" index="0" allow="pedestrian" speed="13.89" length="85.90" width="2.00" shape="-11.60,100.00 -11.60,14.10"/>
        <lane id="gneE3_1" index="1" disallow="all" speed="13.89" length="85.90" width="1.00" shape="-10.10,100.00 -10.10,14.10"/>
        <lane id="gneE3_2" index="2" disallow="pedestrian" speed="13.89" length="85.90" shape="-8.00,100.00 -8.00,14.10"/>
        <lane id="gneE3_3" index="3" disallow="pedestrian" speed="13.89" length="85.90" shape="-4.80,100.00 -4.80,14.10"/>
        <lane id="gneE3_4" index="4" disallow="pedestrian" speed="13.89" length="85.90" shape="-1.60,100.00 -1.60,14.10"/>
    </edge>
    <edge id="gneE5" from="gneJ7" to="gneJ10" priority="-1">
        <lane id="gneE5_0" index="0" allow="pedestrian" speed="13.89" length="85.90" width="2.00" shape="-14.10,11.60 -100.00,11.60"/>
        <lane id="gneE5_1" index="1" disallow="all" speed="13.89" length="85.90" width="1.00" shape="-14.10,10.10 -100.00,10.10"/>
        <lane id="gneE5_2" index="2" disallow="pedestrian" speed="13.89" length="85.90" shape="-14.10,8.00 -100.00,8.00"/>
        <lane id="gneE5_3" index="3" disallow="pedestrian" speed="13.89" length="85.90" shape="-14.10,4.80 -100.00,4.80"/>
        <lane id="gneE5_4" index="4" disallow="pedestrian" speed="13.89" length="85.90" shape="-14.10,1.60 -100.00,1.60"/>
    </edge>
    <edge id="gneE6" from="gneJ11" to="gneJ7" priority="-1">
        <lane id="gneE6_0" index="0" allow="pedestrian" speed="13.89" length="85.90" width="2.00" shape="11.60,-100.00 11.60,-14.10"/>
        <lane id="gneE6_1" index="1" disallow="all" speed="13.89" length="85.90" width="1.00" shape="10.10,-100.00 10.10,-14.10"/>
        <lane id="gneE6_2" index="2" disallow="pedestrian" speed="13.89" length="85.90" shape="8.00,-100.00 8.00,-14.10"/>
        <lane id="gneE6_3" index="3" disallow="pedestrian" speed="13.89" length="85.90" shape="4.80,-100.00 4.80,-14.10"/>
        <lane id="gneE6_4" index="4" disallow="pedestrian" speed="13.89" length="85.90" shape="1.60,-100.00 1.60,-14.10"/>
    </edge>
    <edge id="gneE7" from="gneJ7" to="gneJ12" priority="-1">
        <lane id="gneE7_0" index="0" allow="pedestrian" speed="13.89" length="185.90" width="2.00" shape="14.10,-11.60 200.00,-11.60"/>
        <lane id="gneE7_1" index="1" disallow="all" speed="13.89" length="185.90" width="1.00" shape="14.10,-10.10 200.00,-10.10"/>
        <lane id="gneE7_2" index="2" disallow="pedestrian" speed="13.89" length="185.90" shape="14.10,-8.00 200.00,-8.00"/>
        <lane id="gneE7_3" index="3" disallow="pedestrian" speed="13.89" length="185.90" shape="14.10,-4.80 200.00,-4.80"/>
        <lane id="gneE7_4" index="4" disallow="pedestrian" speed="13.89" length="185.90" shape="14.10,-1.60 200.00,-1.60"/>
    </edge>

    <tlLogic id="gneJ7" type="static" programID="0" offset="0">
        <phase duration="27" state="GGGGGgrrrrrrgGGGggrrrrrrrGrr"/>
        <phase duration="10" state="GGGGGgrrrrrrgGGGggrrrrrrrrrr"/>
        <phase duration="3"  state="yyyyyyrrrrrryyyyyyrrrrrrrrrr"/>
        <phase duration="27" state="rrrrrrGGGGGgrrrrrrgGGGggrrGr"/>
        <phase duration="10" state="rrrrrrGGGGGgrrrrrrgGGGggrrrr"/>
        <phase duration="3"  state="rrrrrryyyyyyrrrrrryyyyyyrrrr"/>
        <phase duration="10" state="rrrrrrrrrrrrrrrrrrrrrrrrrrrr"/>
        <phase duration="5"  state="rrrrrrrrrrrrrrrrrrrrrrrrGGGG"/>
        <phase duration="5"  state="rrrrrrrrrrrrrrrrrrrrrrrrrrrr"/>
    </tlLogic>

    <junction id="gneJ10" type="priority" x="-100.00" y="0.00" incLanes="-gneE5_0 -gneE5_1 -gneE5_2 -gneE5_3 -gneE5_4 gneE5_0 gneE5_1 gneE5_2 gneE5_3 gneE5_4" intLanes=":gneJ10_0_0 :gneJ10_1_0 :gneJ10_2_0" shape="-100.00,0.00 -100.00,12.60 -100.00,0.00 -100.00,12.60">
        <request index="0" response="000" foes="000" cont="0"/>
        <request index="1" response="000" foes="000" cont="0"/>
        <request index="2" response="000" foes="000" cont="0"/>
    </junction>
    <junction id="gneJ11" type="dead_end" x="0.00" y="-100.00" incLanes="-gneE6_0 -gneE6_1 -gneE6_2 -gneE6_3 -gneE6_4" intLanes="" shape="0.00,-100.00 -12.60,-100.00 0.00,-100.00"/>
    <junction id="gneJ12" type="dead_end" x="200.00" y="0.00" incLanes="gneE7_0 gneE7_1 gneE7_2 gneE7_3 gneE7_4" intLanes="" shape="200.00,0.00 200.00,-12.60 200.00,0.00"/>
    <junction id="gneJ6" type="dead_end" x="0.00" y="100.00" incLanes="-gneE3_0 -gneE3_1 -gneE3_2 -gneE3_3 -gneE3_4" intLanes="" shape="0.00,100.00 12.60,100.00 0.00,100.00"/>
    <junction id="gneJ7" type="traffic_light" x="0.00" y="0.00" incLanes="gneE3_0 gneE3_1 gneE3_2 gneE3_3 gneE3_4 -gneE7_0 -gneE7_1 -gneE7_2 -gneE7_3 -gneE7_4 gneE6_0 gneE6_1 gneE6_2 gneE6_3 gneE6_4 --gneE5_0 --gneE5_1 --gneE5_2 --gneE5_3 --gneE5_4 :gneJ7_w1_0 :gneJ7_w2_0 :gneJ7_w3_0 :gneJ7_w4_0" intLanes=":gneJ7_24_0 :gneJ7_1_0 :gneJ7_2_0 :gneJ7_2_1 :gneJ7_2_2 :gneJ7_25_0 :gneJ7_26_0 :gneJ7_7_0 :gneJ7_8_0 :gneJ7_8_1 :gneJ7_8_2 :gneJ7_27_0 :gneJ7_28_0 :gneJ7_13_0 :gneJ7_13_1 :gneJ7_13_2 :gneJ7_29_0 :gneJ7_30_0 :gneJ7_31_0 :gneJ7_19_0 :gneJ7_19_1 :gneJ7_19_2 :gneJ7_32_0 :gneJ7_33_0 :gneJ7_c0_0 :gneJ7_c1_0 :gneJ7_c2_0 :gneJ7_c3_0" shape="-12.60,14.10 12.60,14.10 12.77,13.27 12.98,12.97 13.27,12.77 13.64,12.64 14.10,12.60 14.10,-12.60 13.27,-12.77 12.98,-12.97 12.77,-13.27 12.64,-13.64 12.60,-14.10 -12.60,-14.10 -12.77,-13.27 -12.97,-12.97 -13.27,-12.77 -13.64,-12.64 -14.10,-12.60 -14.10,12.60 -13.27,12.77 -12.97,12.97 -12.77,13.27 -12.64,13.64">
        <request index="0"  response="1001100000000000000000000000" foes="1001100000100000011100000000" cont="1"/>
        <request index="1"  response="0001100000000000000000000000" foes="0001100000000000011100000000" cont="0"/>
        <request index="2"  response="0101010001000000100000000000" foes="0101011111110000111110000000" cont="0"/>
        <request index="3"  response="0101010001000000100000000000" foes="0101011111110000111110000000" cont="0"/>
        <request index="4"  response="0101010001000000100000000000" foes="0101011111110000111110000000" cont="0"/>
        <request index="5"  response="0011010000001110100000000000" foes="0011011110001110111110000000" cont="1"/>
        <request index="6"  response="0011000000001110000000000000" foes="0011000000001110000000000000" cont="1"/>
        <request index="7"  response="1010000000101110000000111100" foes="1010110000101110011000111100" cont="0"/>
        <request index="8"  response="0010000000101110000000111111" foes="0010110000101110000000111111" cont="0"/>
        <request index="9"  response="0010000000101110000000111111" foes="0010110000101110000010111111" cont="0"/>
        <request index="10" response="0010000000101110000000111111" foes="0010110000101110000010111111" cont="0"/>
        <request index="11" response="0110001110111110000000111100" foes="0110001110111110000000111100" cont="1"/>
        <request index="12" response="0110000000000000000000000000" foes="0110001110000000000000000000" cont="1"/>
        <request index="13" response="0101010000000000100001000000" foes="0101011110000000111111100000" cont="0"/>
        <request index="14" response="0101010000000000100001000000" foes="0101011110000000111111100000" cont="0"/>
        <request index="15" response="0101010000000000100001000000" foes="0101011110000000111111100000" cont="0"/>
        <request index="16" response="1100110000000000100000011100" foes="1100111110000000100000011100" cont="1"/>
        <request index="17" response="0100110000000000100000011101" foes="0100111110000000111110011101" cont="1"/>
        <request index="18" response="1100000000000000000000011100" foes="1100000000000000000000011100" cont="1"/>
        <request index="19" response="1010000000111111000000111100" foes="1010000000111111100000111100" cont="0"/>
        <request index="20" response="1010000000111111000000111100" foes="1010000000111111100000111100" cont="0"/>
        <request index="21" response="1010000000111111000000111100" foes="1010000000111111100000111100" cont="0"/>
        <request index="22" response="1001000000111110011110111100" foes="1001000000111110011110111100" cont="1"/>
        <request index="23" response="1000000000010000011110000001" foes="1000000000010000011110000001" cont="1"/>
        <request index="24" response="0000000000000000000000000000" foes="0000010000001110000001111111" cont="0"/>
        <request index="25" response="0000000000000000000000000000" foes="0000001110000001111111100000" cont="0"/>
        <request index="26" response="0000000000000000000000000000" foes="0000000001111111100000011100" cont="0"/>
        <request index="27" response="0000000000000000000000000000" foes="0000111111010000000010000001" cont="0"/>
    </junction>

    <junction id=":gneJ7_24_0" type="internal" x="-10.10" y="9.18" incLanes=":gneJ7_0_0" intLanes=":gneJ7_8_0 :gneJ7_8_1 :gneJ7_8_2 :gneJ7_17_0 :gneJ7_23_0 :gneJ7_c0_0 :gneJ7_c3_0"/>
    <junction id=":gneJ7_25_0" type="internal" x="-0.00" y="6.20" incLanes=":gneJ7_5_0 gneE6_2 gneE6_3 gneE6_4" intLanes=":gneJ7_7_0 :gneJ7_8_0 :gneJ7_8_1 :gneJ7_8_2 :gneJ7_11_0 :gneJ7_12_0 :gneJ7_13_0 :gneJ7_13_1 :gneJ7_13_2 :gneJ7_19_0 :gneJ7_19_1 :gneJ7_19_2 :gneJ7_22_0 :gneJ7_c0_0 :gneJ7_c1_0"/>
    <junction id=":gneJ7_26_0" type="internal" x="9.18" y="10.10" incLanes=":gneJ7_6_0" intLanes=":gneJ7_13_0 :gneJ7_13_1 :gneJ7_13_2 :gneJ7_22_0 :gneJ7_c0_0 :gneJ7_c1_0"/>
    <junction id=":gneJ7_27_0" type="internal" x="6.20" y="-0.00" incLanes=":gneJ7_11_0 --gneE5_2 --gneE5_3 --gneE5_4" intLanes=":gneJ7_2_0 :gneJ7_2_1 :gneJ7_2_2 :gneJ7_5_0 :gneJ7_13_0 :gneJ7_13_1 :gneJ7_13_2 :gneJ7_16_0 :gneJ7_17_0 :gneJ7_18_0 :gneJ7_19_0 :gneJ7_19_1 :gneJ7_19_2 :gneJ7_c1_0 :gneJ7_c2_0"/>
    <junction id=":gneJ7_28_0" type="internal" x="10.10" y="-9.18" incLanes=":gneJ7_12_0" intLanes=":gneJ7_5_0 :gneJ7_19_0 :gneJ7_19_1 :gneJ7_19_2 :gneJ7_c1_0 :gneJ7_c2_0"/>
    <junction id=":gneJ7_29_0" type="internal" x="0.00" y="-6.20" incLanes=":gneJ7_16_0 gneE3_2 gneE3_3 gneE3_4" intLanes=":gneJ7_2_0 :gneJ7_2_1 :gneJ7_2_2 :gneJ7_11_0 :gneJ7_19_0 :gneJ7_19_1 :gneJ7_19_2 :gneJ7_22_0 :gneJ7_23_0 :gneJ7_c2_0 :gneJ7_c3_0"/>
    <junction id=":gneJ7_30_0" type="internal" x="0.00" y="-4.59" incLanes=":gneJ7_17_0 gneE3_2 gneE3_3 gneE3_4" intLanes=":gneJ7_0_0 :gneJ7_1_0 :gneJ7_2_0 :gneJ7_2_1 :gneJ7_2_2 :gneJ7_7_0 :gneJ7_8_0 :gneJ7_8_1 :gneJ7_8_2 :gneJ7_11_0 :gneJ7_19_0 :gneJ7_19_1 :gneJ7_19_2 :gneJ7_22_0 :gneJ7_23_0 :gneJ7_c2_0"/>
    <junction id=":gneJ7_31_0" type="internal" x="-9.18" y="-10.10" incLanes=":gneJ7_18_0" intLanes=":gneJ7_2_0 :gneJ7_2_1 :gneJ7_2_2 :gneJ7_11_0 :gneJ7_c2_0 :gneJ7_c3_0"/>
    <junction id=":gneJ7_32_0" type="internal" x="-6.20" y="-0.00" incLanes=":gneJ7_22_0 -gneE7_2 -gneE7_3 -gneE7_4" intLanes=":gneJ7_2_0 :gneJ7_2_1 :gneJ7_2_2 :gneJ7_5_0 :gneJ7_6_0 :gneJ7_7_0 :gneJ7_8_0 :gneJ7_8_1 :gneJ7_8_2 :gneJ7_13_0 :gneJ7_13_1 :gneJ7_13_2 :gneJ7_16_0 :gneJ7_17_0 :gneJ7_c0_0 :gneJ7_c3_0"/>
    <junction id=":gneJ7_33_0" type="internal" x="-14.10" y="0.00" incLanes=":gneJ7_23_0 -gneE7_2 -gneE7_3 -gneE7_4" intLanes=":gneJ7_0_0 :gneJ7_1_0 :gneJ7_7_0 :gneJ7_8_0 :gneJ7_8_1 :gneJ7_8_2 :gneJ7_16_0 :gneJ7_17_0 :gneJ7_c3_0"/>

    <connection from="--gneE5" to="-gneE6" fromLane="2" toLane="2" via=":gneJ7_18_0" tl="gneJ7" linkIndex="18" dir="r" state="o"/>
    <connection from="--gneE5" to="gneE7" fromLane="2" toLane="2" via=":gneJ7_19_0" tl="gneJ7" linkIndex="19" dir="s" state="o"/>
    <connection from="--gneE5" to="gneE7" fromLane="3" toLane="3" via=":gneJ7_19_1" tl="gneJ7" linkIndex="20" dir="s" state="o"/>
    <connection from="--gneE5" to="gneE7" fromLane="4" toLane="4" via=":gneJ7_19_2" tl="gneJ7" linkIndex="21" dir="s" state="o"/>
    <connection from="--gneE5" to="-gneE3" fromLane="4" toLane="4" via=":gneJ7_22_0" tl="gneJ7" linkIndex="22" dir="L" state="o"/>
    <connection from="--gneE5" to="gneE5" fromLane="4" toLane="4" via=":gneJ7_23_0" tl="gneJ7" linkIndex="23" dir="l" state="o"/>
    <connection from="-gneE7" to="-gneE3" fromLane="2" toLane="2" via=":gneJ7_6_0" tl="gneJ7" linkIndex="6" dir="r" state="o"/>
    <connection from="-gneE7" to="-gneE5" fromLane="2" toLane="3" via=":gneJ7_7_0" tl="gneJ7" linkIndex="7" dir="s" state="o"/>
    <connection from="-gneE7" to="gneE5" fromLane="2" toLane="2" via=":gneJ7_8_0" tl="gneJ7" linkIndex="8" dir="s" state="o"/>
    <connection from="-gneE7" to="gneE5" fromLane="3" toLane="3" via=":gneJ7_8_1" tl="gneJ7" linkIndex="9" dir="s" state="o"/>
    <connection from="-gneE7" to="gneE5" fromLane="4" toLane="4" via=":gneJ7_8_2" tl="gneJ7" linkIndex="10" dir="s" state="o"/>
    <connection from="-gneE7" to="-gneE6" fromLane="4" toLane="4" via=":gneJ7_11_0" tl="gneJ7" linkIndex="11" dir="l" state="o"/>
    <connection from="gneE3" to="-gneE5" fromLane="2" toLane="2" via=":gneJ7_0_0" tl="gneJ7" linkIndex="0" dir="R" state="o"/>
    <connection from="gneE3" to="gneE5" fromLane="2" toLane="2" via=":gneJ7_1_0" tl="gneJ7" linkIndex="1" dir="r" state="o"/>
    <connection from="gneE3" to="-gneE6" fromLane="2" toLane="2" via=":gneJ7_2_0" tl="gneJ7" linkIndex="2" dir="s" state="o"/>
    <connection from="gneE3" to="-gneE6" fromLane="3" toLane="3" via=":gneJ7_2_1" tl="gneJ7" linkIndex="3" dir="s" state="o"/>
    <connection from="gneE3" to="-gneE6" fromLane="4" toLane="4" via=":gneJ7_2_2" tl="gneJ7" linkIndex="4" dir="s" state="o"/>
    <connection from="gneE3" to="gneE7" fromLane="4" toLane="4" via=":gneJ7_5_0" tl="gneJ7" linkIndex="5" dir="l" state="o"/>
    <connection from="gneE5" to="--gneE5" fromLane="2" toLane="2" via=":gneJ10_0_0" dir="l" state="M"/>
    <connection from="gneE5" to="--gneE5" fromLane="3" toLane="3" via=":gneJ10_1_0" dir="l" state="M"/>
    <connection from="gneE5" to="--gneE5" fromLane="4" toLane="4" via=":gneJ10_2_0" dir="l" state="M"/>
    <connection from="gneE6" to="gneE7" fromLane="2" toLane="2" via=":gneJ7_12_0" tl="gneJ7" linkIndex="12" dir="r" state="o"/>
    <connection from="gneE6" to="-gneE3" fromLane="2" toLane="2" via=":gneJ7_13_0" tl="gneJ7" linkIndex="13" dir="s" state="o"/>
    <connection from="gneE6" to="-gneE3" fromLane="3" toLane="3" via=":gneJ7_13_1" tl="gneJ7" linkIndex="14" dir="s" state="o"/>
    <connection from="gneE6" to="-gneE3" fromLane="4" toLane="4" via=":gneJ7_13_2" tl="gneJ7" linkIndex="15" dir="s" state="o"/>
    <connection from="gneE6" to="-gneE5" fromLane="4" toLane="4" via=":gneJ7_16_0" tl="gneJ7" linkIndex="16" dir="l" state="o"/>
    <connection from="gneE6" to="gneE5" fromLane="4" toLane="3" via=":gneJ7_17_0" tl="gneJ7" linkIndex="17" dir="L" state="o"/>

    <connection from=":gneJ10_0" to="--gneE5" fromLane="0" toLane="2" dir="l" state="M"/>
    <connection from=":gneJ10_1" to="--gneE5" fromLane="0" toLane="3" dir="l" state="M"/>
    <connection from=":gneJ10_2" to="--gneE5" fromLane="0" toLane="4" dir="l" state="M"/>
    <connection from=":gneJ7_0" to="-gneE5" fromLane="0" toLane="2" via=":gneJ7_24_0" dir="R" state="m"/>
    <connection from=":gneJ7_24" to="-gneE5" fromLane="0" toLane="2" dir="R" state="M"/>