<?xml version="1.0" encoding="UTF-8"?>

<!-- generated on 06/11/20 15:48:43 by Eclipse SUMO netedit Version 1.3.1
<configuration xmlns:xsi="http://www.w3.org/2001/XMLSchema-instance" xsi:noNamespaceSchemaLocation="http://sumo.dlr.de/xsd/netconvertConfiguration.xsd">

    <output>
        <output-file value="X:\CODE\PycharmProjects\PedestrianCollision\sumomodel\new_cross3_bak.net.xml"/>
    </output>

    <processing>
        <offset.disable-normalization value="true"/>
    </processing>

    <junctions>
        <no-internal-links value="false"/>
        <no-turnarounds value="true"/>
    </junctions>

</configuration>
-->

<net version="1.3" junctionCornerDetail="5" limitTurnSpeed="5.50" xmlns:xsi="http://www.w3.org/2001/XMLSchema-instance" xsi:noNamespaceSchemaLocation="http://sumo.dlr.de/xsd/net_file.xsd">

    <location netOffset="0.00,0.00" convBoundary="-100.00,-100.00,200.00,100.00" origBoundary="10000000000.00,10000000000.00,-10000000000.00,-10000000000.00" projParameter="!"/>

    <edge id=":gneJ0_0" function="internal">
        <lane id=":gneJ0_0_0" index="0" disallow="pedestrian" speed="6.76" length="5.59" shape="-8.00,14.10 -8.38,11.43 -9.52,9.52 -10.10,9.18"/>
    </edge>
    <edge id=":gneJ0_1" function="internal">
        <lane id=":gneJ0_1_0" index="0" disallow="pedestrian" speed="13.89" length="28.20" shape="-8.00,14.10 -8.00,-14.10"/>
        <lane id=":gneJ0_1_1" index="1" disallow="pedestrian" speed="13.89" length="28.20" shape="-4.80,14.10 -4.80,-14.10"/>
        <lane id=":gneJ0_1_2" index="2" disallow="pedestrian" speed="13.89" length="28.20" shape="-1.60,14.10 -1.60,-14.10"/>
    </edge>
    <edge id=":gneJ0_4" function="internal">
        <lane id=":gneJ0_4_0" index="0" disallow="pedestrian" speed="10.53" length="8.14" shape="-1.60,14.10 -0.62,7.23 -0.00,6.20"/>
    </edge>
    <edge id=":gneJ0_20" function="internal">
        <lane id=":gneJ0_20_0" index="0" disallow="pedestrian" speed="6.76" length="4.25" shape="-10.10,9.18 -11.43,8.38 -14.10,8.00"/>
    </edge>
    <edge id=":gneJ0_21" function="internal">
        <lane id=":gneJ0_21_0" index="0" disallow="pedestrian" speed="10.53" length="17.18" shape="-0.00,6.20 2.33,2.33 7.23,-0.62 14.10,-1.60"/>
    </edge>
    <edge id=":gneJ0_5" function="internal">
        <lane id=":gneJ0_5_0" index="0" disallow="pedestrian" speed="6.76" length="5.59" shape="14.10,8.00 11.43,8.38 9.53,9.52 9.18,10.10"/>
    </edge>
    <edge id=":gneJ0_6" function="internal">
        <lane id=":gneJ0_6_0" index="0" disallow="pedestrian" speed="13.89" length="28.20" shape="14.10,8.00 -14.10,8.00"/>
        <lane id=":gneJ0_6_1" index="1" disallow="pedestrian" speed="13.89" length="28.20" shape="14.10,4.80 -14.10,4.80"/>
        <lane id=":gneJ0_6_2" index="2" disallow="pedestrian" speed="13.89" length="28.20" shape="14.10,1.60 -14.10,1.60"/>
    </edge>
    <edge id=":gneJ0_9" function="internal">
        <lane id=":gneJ0_9_0" index="0" disallow="pedestrian" speed="10.53" length="8.14" shape="14.10,1.60 7.23,0.62 6.20,-0.00"/>
    </edge>
    <edge id=":gneJ0_22" function="internal">
        <lane id=":gneJ0_22_0" index="0" disallow="pedestrian" speed="6.76" length="4.25" shape="9.18,10.10 8.38,11.43 8.00,14.10"/>
    </edge>
    <edge id=":gneJ0_23" function="internal">
        <lane id=":gneJ0_23_0" index="0" disallow="pedestrian" speed="10.53" length="17.18" shape="6.20,-0.00 2.33,-2.32 -0.62,-7.23 -1.60,-14.10"/>
    </edge>
    <edge id=":gneJ0_10" function="internal">
        <lane id=":gneJ0_10_0" index="0" disallow="pedestrian" speed="6.76" length="5.59" shape="8.00,-14.10 8.38,-11.43 9.53,-9.52 10.10,-9.18"/>
    </edge>
    <edge id=":gneJ0_11" function="internal">
        <lane id=":gneJ0_11_0" index="0" disallow="pedestrian" speed="13.89" length="28.20" shape="8.00,-14.10 8.00,14.10"/>
        <lane id=":gneJ0_11_1" index="1" disallow="pedestrian" speed="13.89" length="28.20" shape="4.80,-14.10 4.80,14.10"/>
        <lane id=":gneJ0_11_2" index="2" disallow="pedestrian" speed="13.89" length="28.20" shape="1.60,-14.10 1.60,14.10"/>
    </edge>
    <edge id=":gneJ0_14" function="internal">
        <lane id=":gneJ0_14_0" index="0" disallow="pedestrian" speed="10.53" length="8.14" shape="1.60,-14.10 0.62,-7.23 0.00,-6.20"/>
    </edge>
    <edge id=":gneJ0_24" function="internal">
        <lane id=":gneJ0_24_0" index="0" disallow="pedestrian" speed="6.76" length="4.25" shape="10.10,-9.18 11.43,-8.38 14.10,-8.00"/>
    </edge>
    <edge id=":gneJ0_25" function="internal">
        <lane id=":gneJ0_25_0" index="0" disallow="pedestrian" speed="10.53" length="17.18" shape="0.00,-6.20 -2.32,-2.33 -7.23,0.62 -14.10,1.60"/>
    </edge>
    <edge id=":gneJ0_15" function="internal">
        <lane id=":gneJ0_15_0" index="0" disallow="pedestrian" speed="6.76" length="5.59" shape="-14.10,-8.00 -11.43,-8.38 -9.52,-9.52 -9.18,-10.10"/>
    </edge>
    <edge id=":gneJ0_16" function="internal">
        <lane id=":gneJ0_16_0" index="0" disallow="pedestrian" speed="13.89" length="28.20" shape="-14.10,-8.00 14.10,-8.00"/>
        <lane id=":gneJ0_16_1" index="1" disallow="pedestrian" speed="13.89" length="28.20" shape="-14.10,-4.80 14.10,-4.80"/>
        <lane id=":gneJ0_16_2" index="2" disallow="pedestrian" speed="13.89" length="28.20" shape="-14.10,-1.60 14.10,-1.60"/>
    </edge>
    <edge id=":gneJ0_19" function="internal">
        <lane id=":gneJ0_19_0" index="0" disallow="pedestrian" speed="10.53" length="8.14" shape="-14.10,-1.60 -7.23,-0.62 -6.20,-0.00"/>
    </edge>
    <edge id=":gneJ0_26" function="internal">
        <lane id=":gneJ0_26_0" index="0" disallow="pedestrian" speed="6.76" length="4.25" shape="-9.18,-10.10 -8.38,-11.43 -8.00,-14.10"/>
    </edge>
    <edge id=":gneJ0_27" function="internal">
        <lane id=":gneJ0_27_0" index="0" disallow="pedestrian" speed="10.53" length="17.18" shape="-6.20,-0.00 -2.33,2.32 0.62,7.23 1.60,14.10"/>
    </edge>
    <edge id=":gneJ0_c0" function="crossing" crossingEdges="gneE0 -gneE0">
        <lane id=":gneJ0_c0_0" index="0" allow="pedestrian" speed="1.00" length="19.20" width="4.00" shape="9.60,12.10 -9.60,12.10"/>
    </edge>
    <edge id=":gneJ0_c1" function="crossing" crossingEdges="gneE2 -gneE2">
        <lane id=":gneJ0_c1_0" index="0" allow="pedestrian" speed="1.00" length="19.20" width="4.00" shape="12.10,-9.60 12.10,9.60"/>
    </edge>
    <edge id=":gneJ0_c2" function="crossing" crossingEdges="gneE1 -gneE1">
        <lane id=":gneJ0_c2_0" index="0" allow="pedestrian" speed="1.00" length="19.20" width="4.00" shape="-9.60,-12.10 9.60,-12.10"/>
    </edge>
    <edge id=":gneJ0_c3" function="crossing" crossingEdges="gneE3 -gneE3">
        <lane id=":gneJ0_c3_0" index="0" allow="pedestrian" speed="1.00" length="19.20" width="4.00" shape="-12.10,9.60 -12.10,-9.60"/>
    </edge>
    <edge id=":gneJ0_w0" function="walkingarea">
        <lane id=":gneJ0_w0_0" index="0" allow="pedestrian" speed="1.00" length="3.63" width="4.00" shape="-14.10,9.60 -14.10,10.60 -14.10,12.60 -12.60,14.10 -10.60,14.10 -9.60,14.10 -9.72,12.72 -10.10,11.60 -10.72,10.72 -11.60,10.10 -12.72,9.72"/>
    </edge>
    <edge id=":gneJ0_w1" function="walkingarea">
        <lane id=":gneJ0_w1_0" index="0" allow="pedestrian" speed="1.00" length="3.63" width="4.00" shape="9.60,14.10 10.60,14.10 12.60,14.10 14.10,12.60 14.10,10.60 14.10,9.60 12.73,9.72 11.60,10.10 10.73,10.72 10.10,11.60 9.72,12.72"/>
    </edge>
    <edge id=":gneJ0_w2" function="walkingarea">
        <lane id=":gneJ0_w2_0" index="0" allow="pedestrian" speed="1.00" length="3.63" width="4.00" shape="14.10,-9.60 14.10,-10.60 14.10,-12.60 12.60,-14.10 10.60,-14.10 9.60,-14.10 9.73,-12.72 10.10,-11.60 10.73,-10.72 11.60,-10.10 12.73,-9.72"/>
    </edge>
    <edge id=":gneJ0_w3" function="walkingarea">
        <lane id=":gneJ0_w3_0" index="0" allow="pedestrian" speed="1.00" length="3.63" width="4.00" shape="-9.60,-14.10 -10.60,-14.10 -12.60,-14.10 -14.10,-12.60 -14.10,-10.60 -14.10,-9.60 -12.72,-9.72 -11.60,-10.10 -10.72,-10.72 -10.10,-11.60 -9.72,-12.72"/>
    </edge>
    <edge id=":gneJ1_w0" function="walkingarea">
        <lane id=":gneJ1_w0_0" index="0" allow="pedestrian" speed="1.00" length="23.20" width="2.00" shape="-10.60,100.00 -12.60,100.00 12.60,100.00 10.60,100.00"/>
    </edge>
    <edge id=":gneJ2_w0" function="walkingarea">
        <lane id=":gneJ2_w0_0" index="0" allow="pedestrian" speed="1.00" length="23.20" width="2.00" shape="10.60,-100.00 12.60,-100.00 -12.60,-100.00 -10.60,-100.00"/>
    </edge>
    <edge id=":gneJ3_w0" function="walkingarea">
        <lane id=":gneJ3_w0_0" index="0" allow="pedestrian" speed="1.00" length="23.20" width="2.00" shape="200.00,10.60 200.00,12.60 200.00,-12.60 200.00,-10.60"/>
    </edge>
    <edge id=":gneJ4_w0" function="walkingarea">
        <lane id=":gneJ4_w0_0" index="0" allow="pedestrian" speed="1.00" length="23.20" width="2.00" shape="-100.00,-10.60 -100.00,-12.60 -100.00,12.60 -100.00,10.60"/>
    </edge>

    <edge id="-gneE0" from="gneJ1" to="gneJ0" priority="-1">
        <lane id="-gneE0_0" index="0" allow="pedestrian" speed="13.89" length="85.90" width="2.00" shape="-11.60,100.00 -11.60,14.10"/>
        <lane id="-gneE0_1" index="1" disallow="all" speed="13.89" length="85.90" width="1.00" shape="-10.10,100.00 -10.10,14.10"/>
        <lane id="-gneE0_2" index="2" disallow="pedestrian" speed="13.89" length="85.90" shape="-8.00,100.00 -8.00,14.10"/>
        <lane id="-gneE0_3" index="3" disallow="pedestrian" speed="13.89" length="85.90" shape="-4.80,100.00 -4.80,14.10"/>
        <lane id="-gneE0_4" index="4" disallow="pedestrian" speed="13.89" length="85.90" shape="-1.60,100.00 -1.60,14.10"/>
    </edge>
    <edge id="-gneE1" from="gneJ2" to="gneJ0" priority="-1">
        <lane id="-gneE1_0" index="0" allow="pedestrian" speed="13.89" length="85.90" width="2.00" shape="11.60,-100.00 11.60,-14.10"/>
        <lane id="-gneE1_1" index="1" disallow="all" speed="13.89" length="85.90" width="1.00" shape="10.10,-100.00 10.10,-14.10"/>
        <lane id="-gneE1_2" index="2" disallow="pedestrian" speed="13.89" length="85.90" shape="8.00,-100.00 8.00,-14.10"/>
        <lane id="-gneE1_3" index="3" disallow="pedestrian" speed="13.89" length="85.90" shape="4.80,-100.00 4.80,-14.10"/>
        <lane id="-gneE1_4" index="4" disallow="pedestrian" speed="13.89" length="85.90" shape="1.60,-100.00 1.60,-14.10"/>
    </edge>
    <edge id="-gneE2" from="gneJ3" to="gneJ0" priority="-1">
        <lane id="-gneE2_0" index="0" allow="pedestrian" speed="13.89" length="185.90" width="2.00" shape="200.00,11.60 14.10,11.60"/>
        <lane id="-gneE2_1" index="1" disallow="all" speed="13.89" length="185.90" width="1.00" shape="200.00,10.10 14.10,10.10"/>
        <lane id="-gneE2_2" index="2" disallow="pedestrian" speed="13.89" length="185.90" shape="200.00,8.00 14.10,8.00"/>
        <lane id="-gneE2_3" index="3" disallow="pedestrian" speed="13.89" length="185.90" shape="200.00,4.80 14.10,4.80"/>
        <lane id="-gneE2_4" index="4" disallow="pedestrian" speed="13.89" length="185.90" shape="200.00,1.60 14.10,1.60"/>
    </edge>
    <edge id="-gneE3" from="gneJ4" to="gneJ0" priority="-1">
        <lane id="-gneE3_0" index="0" allow="pedestrian" speed="13.89" length="85.90" width="2.00" shape="-100.00,-11.60 -14.10,-11.60"/>
        <lane id="-gneE3_1" index="1" disallow="all" speed="13.89" length="85.90" width="1.00" shape="-100.00,-10.10 -14.10,-10.10"/>
        <lane id="-gneE3_2" index="2" disallow="pedestrian" speed="13.89" length="85.90" shape="-100.00,-8.00 -14.10,-8.00"/>
        <lane id="-gneE3_3" index="3" disallow="pedestrian" speed="13.89" length="85.90" shape="-100.00,-4.80 -14.10,-4.80"/>
        <lane id="-gneE3_4" index="4" disallow="pedestrian" speed="13.89" length="85.90" shape="-100.00,-1.60 -14.10,-1.60"/>
    </edge>
    <edge id="gneE0" from="gneJ0" to="gneJ1" priority="-1">
        <lane id="gneE0_0" index="0" allow="pedestrian" speed="13.89" length="85.90" width="2.00" shape="11.60,14.10 11.60,100.00"/>
        <lane id="gneE0_1" index="1" disallow="all" speed="13.89" length="85.90" width="1.00" shape="10.10,14.10 10.10,100.00"/>
        <lane id="gneE0_2" index="2" disallow="pedestrian" speed="13.89" length="85.90" shape="8.00,14.10 8.00,100.00"/>
        <lane id="gneE0_3" index="3" disallow="pedestrian" speed="13.89" length="85.90" shape="4.80,14.10 4.80,100.00"/>
        <lane id="gneE0_4" index="4" disallow="pedestrian" speed="13.89" length="85.90" shape="1.60,14.10 1.60,100.00"/>
    </edge>
    <edge id="gneE1" from="gneJ0" to="gneJ2" priority="-1">
        <lane id="gneE1_0" index="0" allow="pedestrian" speed="13.89" length="85.90" width="2.00" shape="-11.60,-14.10 -11.60,-100.00"/>
        <lane id="gneE1_1" index="1" disallow="all" speed="13.89" length="85.90" width="1.00" shape="-10.10,-14.10 -10.10,-100.00"/>
        <lane id="gneE1_2" index="2" disallow="pedestrian" speed="13.89" length="85.90" shape="-8.00,-14.10 -8.00,-100.00"/>
        <lane id="gneE1_3" index="3" disallow="pedestrian" speed="13.89" length="85.90" shape="-4.80,-14.10 -4.80,-100.00"/>
        <lane id="gneE1_4" index="4" disallow="pedestrian" speed="13.89" length="85.90" shape="-1.60,-14.10 -1.60,-100.00"/>
    </edge>
    <edge id="gneE2" from="gneJ0" to="gneJ3" priority="-1">
        <lane id="gneE2_0" index="0" allow="pedestrian" speed="13.89" length="185.90" width="2.00" shape="14.10,-11.60 200.00,-11.60"/>
        <lane id="gneE2_1" index="1" disallow="all" speed="13.89" length="185.90" width="1.00" shape="14.10,-10.10 200.00,-10.10"/>
        <lane id="gneE2_2" index="2" disallow="pedestrian" speed="13.89" length="185.90" shape="14.10,-8.00 200.00,-8.00"/>
        <lane id="gneE2_3" index="3" disallow="pedestrian" speed="13.89" length="185.90" shape="14.10,-4.80 200.00,-4.80"/>
        <lane id="gneE2_4" index="4" disallow="pedestrian" speed="13.89" length="185.90" shape="14.10,-1.60 200.00,-1.60"/>
    </edge>
    <edge id="gneE3" from="gneJ0" to="gneJ4" priority="-1">
        <lane id="gneE3_0" index="0" allow="pedestrian" speed="13.89" length="85.90" width="2.00" shape="-14.10,11.60 -100.00,11.60"/>
        <lane id="gneE3_1" index="1" disallow="all" speed="13.89" length="85.90" width="1.00" shape="-14.10,10.10 -100.00,10.10"/>
        <lane id="gneE3_2" index="2" disallow="pedestrian" speed="13.89" length="85.90" shape="-14.10,8.00 -100.00,8.00"/>
        <lane id="gneE3_3" index="3" disallow="pedestrian" speed="13.89" length="85.90" shape="-14.10,4.80 -100.00,4.80"/>
        <lane id="gneE3_4" index="4" disallow="pedestrian" speed="13.89" length="85.90" shape="-14.10,1.60 -100.00,1.60"/>
    </edge>

    <tlLogic id="gneJ0" type="static" programID="0" offset="0">
        <phase duration="37" state="GGGGgGrrrrGGGGgGrrrrrGrG"/>
        <phase duration="5"  state="GGGGgGrrrrGGGGgGrrrrrrrr"/>
        <phase duration="3"  state="GyyyyGrrrrGyyyyGrrrrrrrr"/>
        <phase duration="37" state="GrrrrGGGGgGrrrrGGGGgGrGr"/>
        <phase duration="5"  state="GrrrrGGGGgGrrrrGGGGgrrrr"/>
        <phase duration="3"  state="GrrrrGyyyyGrrrrGyyyyrrrr"/>
    </tlLogic>

    <junction id="gneJ0" type="traffic_light" x="0.00" y="0.00" incLanes="-gneE0_0 -gneE0_1 -gneE0_2 -gneE0_3 -gneE0_4 -gneE2_0 -gneE2_1 -gneE2_2 -gneE2_3 -gneE2_4 -gneE1_0 -gneE1_1 -gneE1_2 -gneE1_3 -gneE1_4 -gneE3_0 -gneE3_1 -gneE3_2 -gneE3_3 -gneE3_4 :gneJ0_w1_0 :gneJ0_w2_0 :gneJ0_w3_0 :gneJ0_w0_0" intLanes=":gneJ0_20_0 :gneJ0_1_0 :gneJ0_1_1 :gneJ0_1_2 :gneJ0_21_0 :gneJ0_22_0 :gneJ0_6_0 :gneJ0_6_1 :gneJ0_6_2 :gneJ0_23_0 :gneJ0_24_0 :gneJ0_11_0 :gneJ0_11_1 :gneJ0_11_2 :gneJ0_25_0 :gneJ0_26_0 :gneJ0_16_0 :gneJ0_16_1 :gneJ0_16_2 :gneJ0_27_0 :gneJ0_c0_0 :gneJ0_c1_0 :gneJ0_c2_0 :gneJ0_c3_0" shape="-12.60,14.10 12.60,14.10 12.77,13.27 12.98,12.97 13.27,12.77 13.64,12.64 14.10,12.60 14.10,-12.60 13.27,-12.77 12.98,-12.97 12.77,-13.27 12.64,-13.64 12.60,-14.10 -12.60,-14.10 -12.77,-13.27 -12.97,-12.97 -13.27,-12.77 -13.64,-12.64 -14.10,-12.60 -14.10,12.60 -13.27,12.77 -12.97,12.97 -12.77,13.27 -12.64,13.64">
        <request index="0"  response="100000000000000000000000" foes="100100000000000111000000" cont="1"/>
        <request index="1"  response="000010001000001000000000" foes="010111111100001111000000" cont="0"/>
        <request index="2"  response="000010001000001000000000" foes="010111111100001111000000" cont="0"/>
        <request index="3"  response="000010001000001000000000" foes="010111111100001111000000" cont="0"/>
        <request index="4"  response="001010000011101000000000" foes="001111110011101111000000" cont="1"/>
        <request index="5"  response="000100000011100000000000" foes="001100000011100000000000" cont="1"/>
        <request index="6"  response="000000000111100000011111" foes="101010000111100000011111" cont="0"/>
        <request index="7"  response="000000000111100000011111" foes="101010000111100000011111" cont="0"/>
        <request index="8"  response="000000000111100000011111" foes="101010000111100000011111" cont="0"/>
        <request index="9"  response="010001110111100000011110" foes="011001110111100000011110" cont="1"/>
        <request index="10" response="001000000000000000000000" foes="011001110000000000000000" cont="1"/>
        <request index="11" response="000010000000001000100000" foes="010111110000001111110000" cont="0"/>
        <request index="12" response="000010000000001000100000" foes="010111110000001111110000" cont="0"/>
        <request index="13" response="000010000000001000100000" foes="010111110000001111110000" cont="0"/>
        <request index="14" response="100010000000001000001110" foes="110011110000001111001110" cont="1"/>
        <request index="15" response="010000000000000000001110" foes="110000000000000000001110" cont="1"/>
        <request index="16" response="000000000111110000011110" foes="101000000111111000011110" cont="0"/>
        <request index="17" response="000000000111110000011110" foes="101000000111111000011110" cont="0"/>
        <request index="18" response="000000000111110000011110" foes="101000000111111000011110" cont="0"/>
        <request index="19" response="000100000111100111011110" foes="100100000111100111011110" cont="1"/>
        <request index="20" response="000000000011100000011111" foes="000010000011100000111111" cont="0"/>
        <request index="21" response="000001110000001111100000" foes="000001110000011111110000" cont="0"/>
        <request index="22" response="000000000111110000001110" foes="000000001111111000001110" cont="0"/>
        <request index="23" response="000011111000000111000000" foes="000011111100000111000001" cont="0"/>
    </junction>
    <junction id="gneJ1" type="dead_end" x="0.00" y="100.00" incLanes="gneE0_0 gneE0_1 gneE0_2 gneE0_3 gneE0_4" intLanes="" shape="0.00,100.00 12.60,100.00 0.00,100.00"/>
    <junction id="gneJ2" type="dead_end" x="0.00" y="-100.00" incLanes="gneE1_0 gneE1_1 gneE1_2 gneE1_3 gneE1_4" intLanes="" shape="0.00,-100.00 -12.60,-100.00 0.00,-100.00"/>
    <junction id="gneJ3" type="dead_end" x="200.00" y="0.00" incLanes="gneE2_0 gneE2_1 gneE2_2 gneE2_3 gneE2_4" intLanes="" shape="200.00,0.00 200.00,-12.60 200.00,0.00"/>
    <junction id="gneJ4" type="dead_end" x="-100.00" y="0.00" incLanes="gneE3_0 gneE3_1 gneE3_2 gneE3_3 gneE3_4" intLanes="" shape="-100.00,0.00 -100.00,12.60 -100.00,0.00"/>

    <junction id=":gneJ0_20_0" type="internal" x="-10.10" y="9.18" incLanes=":gneJ0_0_0" intLanes=":gneJ0_6_0 :gneJ0_6_1 :gneJ0_6_2 :gneJ0_14_0 :gneJ0_c0_0 :gneJ0_c3_0"/>
    <junction id=":gneJ0_21_0" type="internal" x="-0.00" y="6.20" incLanes=":gneJ0_4_0 -gneE1_2 -gneE1_3 -gneE1_4" intLanes=":gneJ0_6_0 :gneJ0_6_1 :gneJ0_6_2 :gneJ0_9_0 :gneJ0_10_0 :gneJ0_11_0 :gneJ0_11_1 :gneJ0_11_2 :gneJ0_16_0 :gneJ0_16_1 :gneJ0_16_2 :gneJ0_19_0 :gneJ0_c0_0 :gneJ0_c1_0"/>
    <junction id=":gneJ0_22_0" type="internal" x="9.18" y="10.10" incLanes=":gneJ0_5_0" intLanes=":gneJ0_11_0 :gneJ0_11_1 :gneJ0_11_2 :gneJ0_19_0 :gneJ0_c0_0 :gneJ0_c1_0"/>
    <junction id=":gneJ0_23_0" type="internal" x="6.20" y="-0.00" incLanes=":gneJ0_9_0 -gneE3_2 -gneE3_3 -gneE3_4" intLanes=":gneJ0_1_0 :gneJ0_1_1 :gneJ0_1_2 :gneJ0_4_0 :gneJ0_11_0 :gneJ0_11_1 :gneJ0_11_2 :gneJ0_14_0 :gneJ0_15_0 :gneJ0_16_0 :gneJ0_16_1 :gneJ0_16_2 :gneJ0_c1_0 :gneJ0_c2_0"/>
    <junction id=":gneJ0_24_0" type="internal" x="10.10" y="-9.18" incLanes=":gneJ0_10_0" intLanes=":gneJ0_4_0 :gneJ0_16_0 :gneJ0_16_1 :gneJ0_16_2 :gneJ0_c1_0 :gneJ0_c2_0"/>
    <junction id=":gneJ0_25_0" type="internal" x="0.00" y="-6.20" incLanes=":gneJ0_14_0 -gneE0_2 -gneE0_3 -gneE0_4" intLanes=":gneJ0_0_0 :gneJ0_1_0 :gneJ0_1_1 :gneJ0_1_2 :gneJ0_6_0 :gneJ0_6_1 :gneJ0_6_2 :gneJ0_9_0 :gneJ0_16_0 :gneJ0_16_1 :gneJ0_16_2 :gneJ0_19_0 :gneJ0_c2_0 :gneJ0_c3_0"/>
    <junction id=":gneJ0_26_0" type="internal" x="-9.18" y="-10.10" incLanes=":gneJ0_15_0" intLanes=":gneJ0_1_0 :gneJ0_1_1 :gneJ0_1_2 :gneJ0_9_0 :gneJ0_c2_0 :gneJ0_c3_0"/>
    <junction id=":gneJ0_27_0" type="internal" x="-6.20" y="-0.00" incLanes=":gneJ0_19_0 -gneE2_2 -gneE2_3 -gneE2_4" intLanes=":gneJ0_1_0 :gneJ0_1_1 :gneJ0_1_2 :gneJ0_4_0 :gneJ0_5_0 :gneJ0_6_0 :gneJ0_6_1 :gneJ0_6_2 :gneJ0_11_0 :gneJ0_11_1 :gneJ0_11_2 :gneJ0_14_0 :gneJ0_c0_0 :gneJ0_c3_0"/>

    <connection from="-gneE0" to="gneE3" fromLane="2" toLane="2" via=":gneJ0_0_0" tl="gneJ0" linkIndex="0" dir="r" state="o"/>
    <connection from="-gneE0" to="gneE1" fromLane="2" toLane="2" via=":gneJ0_1_0" tl="gneJ0" linkIndex="1" dir="s" state="O"/>
    <connection from="-gneE0" to="gneE1" fromLane="3" toLane="3" via=":gneJ0_1_1" tl="gneJ0" linkIndex="2" dir="s" state="O"/>
    <connection from="-gneE0" to="gneE1" fromLane="4" toLane="4" via=":gneJ0_1_2" tl="gneJ0" linkIndex="3" dir="s" state="O"/>
    <connection from="-gneE0" to="gneE2" fromLane="4" toLane="4" via=":gneJ0_4_0" tl="gneJ0" linkIndex="4" dir="l" state="o"/>
    <connection from="-gneE1" to="gneE2" fromLane="2" toLane="2" via=":gneJ0_10_0" tl="gneJ0" linkIndex="10" dir="r" state="o"/>
    <connection from="-gneE1" to="gneE0" fromLane="2" toLane="2" via=":gneJ0_11_0" tl="gneJ0" linkIndex="11" dir="s" state="O"/>
    <connection from="-gneE1" to="gneE0" fromLane="3" toLane="3" via=":gneJ0_11_1" tl="gneJ0" linkIndex="12" dir="s" state="O"/>
    <connection from="-gneE1" to="gneE0" fromLane="4" toLane="4" via=":gneJ0_11_2" tl="gneJ0" linkIndex="13" dir="s" state="O"/>
    <connection from="-gneE1" to="gneE3" fromLane="4" toLane="4" via=":gneJ0_14_0" tl="gneJ0" linkIndex="14" dir="l" state="o"/>
    <connection from="-gneE2" to="gneE0" fromLane="2" toLane="2" via=":gneJ0_5_0" tl="gneJ0" linkIndex="5" dir="r" state="o"/>
    <connection from="-gneE2" to="gneE3" fromLane="2" toLane="2" via=":gneJ0_6_0" tl="gneJ0" linkIndex="6" dir="s" state="o"/>
    <connection from="-gneE2" to="gneE3" fromLane="3" toLane="3" via=":gneJ0_6_1" tl="gneJ0" linkIndex="7" dir="s" state="o"/>
    <connection from="-gneE2" to="gneE3" fromLane="4" toLane="4" via=":gneJ0_6_2" tl="gneJ0" linkIndex="8" dir="s" state="o"/>
    <connection from="-gneE2" to="gneE1" fromLane="4" toLane="4" via=":gneJ0_9_0" tl="gneJ0" linkIndex="9" dir="l" state="o"/>
    <connection from="-gneE3" to="gneE1" fromLane="2" toLane="2" via=":gneJ0_15_0" tl="gneJ0" linkIndex="15" dir="r" state="o"/>
    <connection from="-gneE3" to="gneE2" fromLane="2" toLane="2" via=":gneJ0_16_0" tl="gneJ0" linkIndex="16" dir="s" state="o"/>
    <connection from="-gneE3" to="gneE2" fromLane="3" toLane="3" via=":gneJ0_16_1" tl="gneJ0" linkIndex="17" dir="s" state="o"/>
    <connection from="-gneE3" to="gneE2" fromLane="4" toLane="4" via=":gneJ0_16_2" tl="gneJ0" linkIndex="18" dir="s" state="o"/>
    <connection from="-gneE3" to="gneE0" fromLane="4" toLane="4" via=":gneJ0_19_0" tl="gneJ0" linkIndex="19" dir="l" state="o"/>

    <connection from=":gneJ0_0" to="gneE3" fromLane="0" toLane="2" via=":gneJ0_20_0" dir="r" state="m"/>
    <connection from=":gneJ0_20" to="gneE3" fromLane="0" toLane="2" dir="r" state="M"/>
    <connection from=":gneJ0_1" to="gneE1" fromLane="0" toLane="2" dir="s" state="M"/>
    <connection from=":gneJ0_1" to="gneE1" fromLane="1" toLane="3" dir="s" state="M"/>
    <connection from=":gneJ0_1" to="gneE1" fromLane="2" toLane="4" dir="s" state="M"/>
    <connection from=":gneJ0_4" to="gneE2" fromLane="0" toLane="4" via=":gneJ0_21_0" dir="l" state="m"/>
    <connection from=":gneJ0_21" to="gneE2" fromLane="0" toLane="4" dir="l" state="M"/>
    <connection from=":gneJ0_5" to="gneE0" fromLane="0" toLane="2" via=":gneJ0_22_0" dir="r" state="m"/>
    <connection from=":gneJ0_22" to="gneE0" fromLane="0" toLane="2" dir="r" state="M"/>
    <connection from=":gneJ0_6" to="gneE3" fromLane="0" toLane="2" dir="s" state="M"/>
    <connection from=":gneJ0_6" to="gneE3" fromLane="1" toLane="3" dir="s" state="M"/>
    <connection from=":gneJ0_6" to="gneE3" fromLane="2" toLane="4" dir="s" state="M"/>
    <connection from=":gneJ0_9" to="gneE1" fromLane="0" toLane="4" via=":gneJ0_23_0" dir="l" state="m"/>
    <connection from=":gneJ0_23" to="gneE1" fromLane="0" toLane="4" dir="l" state="M"/>
    <connection from=":gneJ0_10" to="gneE2" fromLane="0" toLane="2" via=":gneJ0_24_0" dir="r" state="m"/>
    <connection from=":gneJ0_24" to="gneE2" fromLane="0" toLane="2" dir="r" state="M"/>
    <connection from=":gneJ0_11" to="gneE0" fromLane="0" toLane="2" dir="s" state="M"/>
    <connection from=":gneJ0_11" to="gneE0" fromLane="1" toLane="3" dir="s" state="M"/>
    <connection from=":gneJ0_11" to="gneE0" fromLane="2" toLane="4" dir="s" state="M"/>
    <connection from=":gneJ0_14" to="gneE3" fromLane="0" toLane="4" via=":gneJ0_25_0" dir="l" state="m"/>
    <connection from=":gneJ0_25" to="gneE3" fromLane="0" toLane="4" dir="l" state="M"/>
    <connection from=":gneJ0_15" to="gneE1" fromLane="0" toLane="2" via=":gneJ0_26_0" dir="r" state="m"/>
    <connection from=":gneJ0_26" to="gneE1" fromLane="0" toLane="2" dir="r" state="M"/>
    <connection from=":gneJ0_16" to="gneE2" fromLane="0" toLane="2" dir="s" state="M"/>
    <connection from=":gneJ0_16" to="gneE2" fromLane="1" toLane="3" dir="s" state="M"/>
    <connection from=":gneJ0_16" to="gneE2" fromLane="2" toLane="4" dir="s" state="M"/>
    <connection from=":gneJ0_19" to="gneE0" fromLane="0" toLane="4" via=":gneJ0_27_0" dir="l" state="m"/>
    <connection from=":gneJ0_27" to="gneE0" fromLane="0" toLane="4" dir="l" state="M"/>

    <connection from=":gneJ0_c0" to=":gneJ0_w0" fromLane="0" toLane="0" dir="s" state="M"/>
    <connection from=":gneJ0_c1" to=":gneJ0_w1" fromLane="0" toLane="0" dir="s" state="M"/>
    <connection from=":gneJ0_c2" to=":gneJ0_w2" fromLane="0" toLane="0" dir="s" state="M"/>
    <connection from=":gneJ0_c3" to=":gneJ0_w3" fromLane="0" toLane="0" dir="s" state="M"/>
    <connection from=":gneJ0_w0" to=":gneJ0_c3" fromLane="0" toLane="0" tl="gneJ0" linkIndex="23" dir="s" state="m"/>
    <connection from=":gneJ0_w0" to="gneE3" fromLane="0" toLane="0" dir="s" state="M"/>
    <connection from="-gneE0" to=":gneJ0_w0" fromLane="0" toLane="0" dir="s" state="M"/>
    <connection from=":gneJ0_w1" to=":gneJ0_c0" fromLane="0" toLane="0" tl="gneJ0" linkIndex="20" dir="s" state="m"/>
    <connection from=":gneJ0_w1" to="gneE0" fromLane="0" toLane="0" dir="s" state="M"/>
    <connection from="-gneE2" to=":gneJ0_w1" fromLane="0" toLane="0" dir="s" state="M"/>
    <connection from=":gneJ0_w2" to=":gneJ0_c1" fromLane="0" toLane="0" tl="gneJ0" linkIndex="21" dir="s" state="m"/>
    <connection from=":gneJ0_w2" to="gneE2" fromLane="0" toLane="0" dir="s" state="M"/>
    <connection from="-gneE1" to=":gneJ0_w2" fromLane="0" toLane="0" dir="s" state="M"/>
    <connection from=":gneJ0_w3" to=":gneJ0_c2" fromLane="0" toLane="0" tl="gneJ0" linkIndex="22" dir="s" state="m"/>
    <connection from=":gneJ0_w3" to="gneE1" fromLane="0" toLane="0" dir="s" state="M"/>
    <connection from="-gneE3" to=":gneJ0_w3" fromLane="0" toLane="0" dir="s" state="M"/>
    <connection from=":gneJ1_w0" to="-gneE0" fromLane="0" toLane="0" dir="s" state="M"/>
    <connection from="gneE0" to=":gneJ1_w0" fromLane="0" toLane="0" dir="s" state="M"/>
    <connection from=":gneJ2_w0" to="-gneE1" fromLane="0" toLane="0" dir="s" state="M"/>
    <connection from="gneE1" to=":gneJ2_w0" fromLane="0" toLane="0" dir="s" state="M"/>
    <connection from=":gneJ3_w0" to="-gneE2" fromLane="0" toLane="0" dir="s" state="M"/>
    <connection from="gneE2" to=":gneJ3_w0" fromLane="0" toLane="0" dir="s" state="M"/>
    <connection from=":gneJ4_w0" to="-gneE3" fromLane="0" toLane="0" dir="s" state="M"/>
    <connection from="gneE3" to=":gneJ4_w0" fromLane="0" toLane="0" dir="s" state="M"/>
</net>
