<?xml version="1.0" encoding="UTF-8"?>

<!-- generated on 07/22/20 20:59:02 by Eclipse SUMO netedit Version 1.3.1
<configuration xmlns:xsi="http://www.w3.org/2001/XMLSchema-instance" xsi:noNamespaceSchemaLocation="http://sumo.dlr.de/xsd/netconvertConfiguration.xsd">

    <input>
        <sumo-net-file value="X:\CODE\PycharmProjects\PedestrianCollision\sumomodel\new_cross3_1.0.net.xml"/>
    </input>

    <output>
        <output-file value="X:\CODE\PycharmProjects\PedestrianCollision\sumomodel\new_cross3_1.0.net.xml"/>
    </output>

    <processing>
        <geometry.max-grade.fix value="false"/>
        <offset.disable-normalization value="true"/>
        <opposites.guess.fix-lengths value="true"/>
        <lefthand value="false"/>
    </processing>

    <junctions>
        <no-internal-links value="false"/>
        <no-turnarounds value="true"/>
        <junctions.corner-detail value="5"/>
        <junctions.limit-turn-speed value="5.5"/>
        <rectangular-lane-cut value="false"/>
    </junctions>

    <pedestrian>
        <walkingareas value="false"/>
    </pedestrian>

</configuration>
-->

<net version="1.3" junctionCornerDetail="5" limitTurnSpeed="5.50" xmlns:xsi="http://www.w3.org/2001/XMLSchema-instance" xsi:noNamespaceSchemaLocation="http://sumo.dlr.de/xsd/net_file.xsd">

    <location netOffset="0.00,0.00" convBoundary="0.00,-100.00,0.00,100.00" origBoundary="-10000000000.00,-10000000000.00,10000000000.00,10000000000.00" projParameter="!"/>

    <edge id=":gneJ0_0" function="internal">
        <lane id=":gneJ0_0_0" index="0" disallow="pedestrian" speed="60.00" length="0.10" width="3.75" shape="-9.38,0.00 -9.38,0.00"/>
        <lane id=":gneJ0_0_1" index="1" disallow="pedestrian" speed="60.00" length="0.10" width="3.75" shape="-5.63,0.00 -5.63,0.00"/>
        <lane id=":gneJ0_0_2" index="2" disallow="pedestrian" speed="60.00" length="0.10" width="3.75" shape="-1.88,0.00 -1.88,0.00"/>
    </edge>
    <edge id=":gneJ0_3" function="internal">
        <lane id=":gneJ0_3_0" index="0" disallow="pedestrian" speed="60.00" length="0.10" width="3.75" shape="9.38,0.00 9.38,0.00"/>
        <lane id=":gneJ0_3_1" index="1" disallow="pedestrian" speed="60.00" length="0.10" width="3.75" shape="5.63,0.00 5.63,0.00"/>
        <lane id=":gneJ0_3_2" index="2" disallow="pedestrian" speed="60.00" length="0.10" width="3.75" shape="1.88,0.00 1.88,0.00"/>
    </edge>
    <edge id=":gneJ0_c0" function="crossing" crossingEdges="gneE0 -gneE0 gneE1 -gneE1">
        <lane id=":gneJ0_c0_0" index="0" allow="pedestrian" speed="1.00" length="4.00" width="4.00" shape="11.25,-2.00 11.25,2.00"/>
    </edge>
    <edge id=":gneJ0_c1" function="crossing" crossingEdges="gneE0 -gneE0">
        <lane id=":gneJ0_c1_0" index="0" allow="pedestrian" speed="1.00" length="22.50" width="4.00" shape="11.25,-2.00 -11.25,-2.00"/>
    </edge>
    <edge id=":gneJ0_c2" function="crossing" crossingEdges="gneE1 -gneE1">
        <lane id=":gneJ0_c2_0" index="0" allow="pedestrian" speed="1.00" length="22.50" width="4.00" shape="-11.25,2.00 11.25,2.00"/>
    </edge>
    <edge id=":gneJ0_w0" function="walkingarea">
        <lane id=":gneJ0_w0_0" index="0" allow="pedestrian" speed="1.00" length="3.06" width="4.00" shape="-11.25,4.00 -11.25,0.00 -12.25,0.00 -14.25,0.00 -14.25,0.00 -12.25,0.00 -11.25,0.00 -11.25,-4.00"/>
    </edge>
    <edge id=":gneJ0_w1" function="walkingarea">
        <lane id=":gneJ0_w1_0" index="0" allow="pedestrian" speed="1.00" length="3.22" width="4.00" shape="11.25,-4.00 11.25,0.00 12.25,0.00 14.25,0.00 14.25,0.00 12.25,0.00 11.25,0.00 11.25,4.00"/>
    </edge>
    <edge id=":gneJ1_w0" function="walkingarea">
        <lane id=":gneJ1_w0_0" index="0" allow="pedestrian" speed="1.00" length="26.50" width="2.00" shape="-12.25,100.00 -14.25,100.00 14.25,100.00 12.25,100.00"/>
    </edge>
    <edge id=":gneJ2_w0" function="walkingarea">
        <lane id=":gneJ2_w0_0" index="0" allow="pedestrian" speed="1.00" length="26.50" width="2.00" shape="12.25,-100.00 14.25,-100.00 -14.25,-100.00 -12.25,-100.00"/>
    </edge>

    <edge id="-gneE0" from="gneJ1" to="gneJ0" priority="-1">
        <lane id="-gneE0_0" index="0" allow="pedestrian" speed="60.00" length="100.00" width="2.00" shape="-13.25,100.00 -13.25,0.00"/>
        <lane id="-gneE0_1" index="1" disallow="all" speed="60.00" length="100.00" width="1.00" shape="-11.75,100.00 -11.75,0.00"/>
        <lane id="-gneE0_2" index="2" disallow="pedestrian" speed="60.00" length="100.00" width="3.75" shape="-9.38,100.00 -9.38,0.00"/>
        <lane id="-gneE0_3" index="3" disallow="pedestrian" speed="60.00" length="100.00" width="3.75" shape="-5.63,100.00 -5.63,0.00"/>
        <lane id="-gneE0_4" index="4" disallow="pedestrian" speed="60.00" length="100.00" width="3.75" shape="-1.88,100.00 -1.88,0.00"/>
    </edge>
    <edge id="-gneE1" from="gneJ2" to="gneJ0" priority="-1">
        <lane id="-gneE1_0" index="0" allow="pedestrian" speed="60.00" length="100.00" width="2.00" shape="13.25,-100.00 13.25,0.00"/>
        <lane id="-gneE1_1" index="1" disallow="all" speed="60.00" length="100.00" width="1.00" shape="11.75,-100.00 11.75,0.00"/>
        <lane id="-gneE1_2" index="2" disallow="pedestrian" speed="60.00" length="100.00" width="3.75" shape="9.38,-100.00 9.38,0.00"/>
        <lane id="-gneE1_3" index="3" disallow="pedestrian" speed="60.00" length="100.00" width="3.75" shape="5.63,-100.00 5.63,0.00"/>
        <lane id="-gneE1_4" index="4" disallow="pedestrian" speed="60.00" length="100.00" width="3.75" shape="1.88,-100.00 1.88,0.00"/>
    </edge>
    <edge id="gneE0" from="gneJ0" to="gneJ1" priority="-1">
        <lane id="gneE0_0" index="0" allow="pedestrian" speed="60.00" length="100.00" width="2.00" shape="13.25,0.00 13.25,100.00"/>
        <lane id="gneE0_1" index="1" disallow="all" speed="60.00" length="100.00" width="1.00" shape="11.75,0.00 11.75,100.00"/>
        <lane id="gneE0_2" index="2" disallow="pedestrian" speed="60.00" length="100.00" width="3.75" shape="9.38,0.00 9.38,100.00"/>
        <lane id="gneE0_3" index="3" disallow="pedestrian" speed="60.00" length="100.00" width="3.75" shape="5.63,0.00 5.63,100.00"/>
        <lane id="gneE0_4" index="4" disallow="pedestrian" speed="60.00" length="100.00" width="3.75" shape="1.88,0.00 1.88,100.00"/>
    </edge>
    <edge id="gneE1" from="gneJ0" to="gneJ2" priority="-1">
        <lane id="gneE1_0" index="0" allow="pedestrian" speed="60.00" length="100.00" width="2.00" shape="-13.25,0.00 -13.25,-100.00"/>
        <lane id="gneE1_1" index="1" disallow="all" speed="60.00" length="100.00" width="1.00" shape="-11.75,0.00 -11.75,-100.00"/>
        <lane id="gneE1_2" index="2" disallow="pedestrian" speed="60.00" length="100.00" width="3.75" shape="-9.38,0.00 -9.38,-100.00"/>
        <lane id="gneE1_3" index="3" disallow="pedestrian" speed="60.00" length="100.00" width="3.75" shape="-5.63,0.00 -5.63,-100.00"/>
        <lane id="gneE1_4" index="4" disallow="pedestrian" speed="60.00" length="100.00" width="3.75" shape="-1.88,0.00 -1.88,-100.00"/>
    </edge>

    <junction id="gneJ0" type="priority" x="0.00" y="0.00" incLanes="-gneE0_0 -gneE0_1 -gneE0_2 -gneE0_3 -gneE0_4 -gneE1_0 -gneE1_1 -gneE1_2 -gneE1_3 -gneE1_4 :gneJ0_w1_0 :gneJ0_w0_0" intLanes=":gneJ0_0_0 :gneJ0_0_1 :gneJ0_0_2 :gneJ0_3_0 :gneJ0_3_1 :gneJ0_3_2 :gneJ0_c0_0 :gneJ0_c1_0 :gneJ0_c2_0" shape="-14.25,0.00 14.25,0.00 -14.25,0.00" rightOfWay="edgePriority">
        <request index="0" response="110000000" foes="111000000" cont="0"/>
        <request index="1" response="110000000" foes="111000000" cont="0"/>
        <request index="2" response="110000000" foes="111000000" cont="0"/>
        <request index="3" response="110000000" foes="111000000" cont="0"/>
        <request index="4" response="110000000" foes="111000000" cont="0"/>
        <request index="5" response="110000000" foes="111000000" cont="0"/>
        <request index="6" response="000111111" foes="000111111" cont="0"/>
        <request index="7" response="000000000" foes="000111111" cont="0"/>
        <request index="8" response="000000000" foes="000111111" cont="0"/>
    </junction>
    <junction id="gneJ1" type="dead_end" x="0.00" y="100.00" incLanes="gneE0_0 gneE0_1 gneE0_2 gneE0_3 gneE0_4" intLanes="" shape="0.00,100.00 14.25,100.00 0.00,100.00"/>
    <junction id="gneJ2" type="dead_end" x="0.00" y="-100.00" incLanes="gneE1_0 gneE1_1 gneE1_2 gneE1_3 gneE1_4" intLanes="" shape="0.00,-100.00 -14.25,-100.00 0.00,-100.00"/>

    <connection from="-gneE0" to="gneE1" fromLane="2" toLane="2" via=":gneJ0_0_0" dir="s" state="m"/>
    <connection from="-gneE0" to="gneE1" fromLane="3" toLane="3" via=":gneJ0_0_1" dir="s" state="m"/>
    <connection from="-gneE0" to="gneE1" fromLane="4" toLane="4" via=":gneJ0_0_2" dir="s" state="m"/>
    <connection from="-gneE1" to="gneE0" fromLane="2" toLane="2" via=":gneJ0_3_0" dir="s" state="m"/>
    <connection from="-gneE1" to="gneE0" fromLane="3" toLane="3" via=":gneJ0_3_1" dir="s" state="m"/>
    <connection from="-gneE1" to="gneE0" fromLane="4" toLane="4" via=":gneJ0_3_2" dir="s" state="m"/>

    <connection from=":gneJ0_0" to="gneE1" fromLane="0" toLane="2" dir="s" state="M"/>
    <connection from=":gneJ0_0" to="gneE1" fromLane="1" toLane="3" dir="s" state="M"/>
    <connection from=":gneJ0_0" to="gneE1" fromLane="2" toLane="4" dir="s" state="M"/>
    <connection from=":gneJ0_3" to="gneE0" fromLane="0" toLane="2" dir="s" state="M"/>
    <connection from=":gneJ0_3" to="gneE0" fromLane="1" toLane="3" dir="s" state="M"/>
    <connection from=":gneJ0_3" to="gneE0" fromLane="2" toLane="4" dir="s" state="M"/>

    <connection from=":gneJ0_c0" to=":gneJ0_w1" fromLane="0" toLane="0" dir="s" state="M"/>
    <connection from=":gneJ0_c1" to=":gneJ0_w0" fromLane="0" toLane="0" dir="s" state="M"/>
    <connection from=":gneJ0_c2" to=":gneJ0_w1" fromLane="0" toLane="0" dir="s" state="M"/>
    <connection from=":gneJ0_w0" to=":gneJ0_c2" fromLane="0" toLane="0" dir="s" state="M"/>
    <connection from=":gneJ0_w0" to="gneE1" fromLane="0" toLane="0" dir="s" state="M"/>
    <connection from="-gneE0" to=":gneJ0_w0" fromLane="0" toLane="0" dir="s" state="M"/>
    <connection from=":gneJ0_w1" to=":gneJ0_c0" fromLane="0" toLane="0" dir="s" state="m"/>
    <connection from=":gneJ0_w1" to=":gneJ0_c1" fromLane="0" toLane="0" dir="s" state="M"/>
    <connection from=":gneJ0_w1" to="gneE0" fromLane="0" toLane="0" dir="s" state="M"/>
    <connection from="-gneE1" to=":gneJ0_w1" fromLane="0" toLane="0" dir="s" state="M"/>
    <connection from=":gneJ1_w0" to="-gneE0" fromLane="0" toLane="0" dir="s" state="M"/>
    <connection from="gneE0" to=":gneJ1_w0" fromLane="0" toLane="0" dir="s" state="M"/>
    <connection from=":gneJ2_w0" to="-gneE1" fromLane="0" toLane="0" dir="s" state="M"/>
    <connection from="gneE1" to=":gneJ2_w0" fromLane="0" toLane="0" dir="s" state="M"/>
</net>
